@<TRIPOS>MOLECULE
X2E
   59    61     1     0     0
SMALL
No Charge or Current Charge


@<TRIPOS>ATOM
      1 N01          3.5180     0.2090     1.5640 nb         1 X2E      -0.752000
      2 C02          4.5440     1.0380     1.4470 ca         1 X2E       0.597900
      3 N02          5.3880     0.9080     2.4730 nv         1 X2E      -1.051900
      4 C03          4.7460     1.9270     0.3900 ca         1 X2E      -0.233000
      5 C04          3.7930     1.9670    -0.6380 ca         1 X2E      -0.001300
      6 C05          2.6970     1.0960    -0.5330 ca         1 X2E      -0.219000
      7 C06          2.5910     0.2390     0.5790 ca         1 X2E       0.398300
      8 C07          3.9410     2.9070    -1.8210 c3         1 X2E      -0.053800
      9 C08          1.4120    -0.7150     0.7250 c3         1 X2E      -0.108700
     10 O09         -0.8020    -2.4900     0.4730 os         1 X2E      -0.460000
     11 N1           1.2440    -3.1400    -2.2050 n7         1 X2E      -0.822400
     12 C10         -1.8850    -3.3700     0.8540 c3         1 X2E       0.156600
     13 C11         -3.0910    -2.5030     1.2930 c3         1 X2E       0.161800
     14 N11         -3.4700    -1.5410     0.2330 n7         1 X2E      -0.865400
     15 C13         -4.4180    -0.4840     0.6270 c3         1 X2E       0.180500
     16 C14         -4.3230     0.6830    -0.3840 c3         1 X2E      -0.039100
     17 C15         -5.8500    -1.0560     0.7230 c3         1 X2E      -0.088100
     18 C2           0.3200    -3.8380    -1.2660 c5         1 X2E       0.097800
     19 C21         -2.9430     1.3360    -0.4220 ca         1 X2E      -0.059300
     20 C22         -2.1370     1.2440    -1.5750 ca         1 X2E      -0.119000
     21 C23         -0.8780     1.8700    -1.6180 ca         1 X2E      -0.089000
     22 C24         -0.4160     2.5910    -0.5030 ca         1 X2E      -0.152000
     23 C25         -1.2090     2.6750     0.6500 ca         1 X2E       0.173000
     24 F25         -0.7630     3.3640     1.7220 f          1 X2E      -0.179000
     25 C26         -2.4680     2.0550     0.6930 ca         1 X2E      -0.153000
     26 C3           0.4630    -3.1100     0.1210 c5         1 X2E       0.141300
     27 C4           1.5070    -1.9840    -0.1690 c5         1 X2E      -0.087700
     28 C5           1.2750    -1.7570    -1.6850 c5         1 X2E       0.131800
     29 HN02         5.2470     0.0770     3.0330 hn         1 X2E       0.466500
     30 HN0A         6.3470     1.2080     2.3360 hn         1 X2E       0.466500
     31 H03          5.6190     2.5720     0.3700 ha         1 X2E       0.119000
     32 H05          1.9340     1.0820    -1.3040 ha         1 X2E       0.120000
     33 H07          4.4710     2.4160    -2.6460 hc         1 X2E       0.046367
     34 H07A         2.9640     3.2330    -2.1960 hc         1 X2E       0.046367
     35 H07B         4.5060     3.8070    -1.5480 hc         1 X2E       0.046367
     36 H08          1.3200    -1.0230     1.7730 hc         1 X2E       0.068200
     37 H08A         0.4870    -0.1710     0.5010 hc         1 X2E       0.068200
     38 HN1          2.1840    -3.5380    -2.0920 hn         1 X2E       0.397000
     39 H10         -2.1870    -4.0110     0.0160 h1         1 X2E       0.030200
     40 H10A        -1.5840    -4.0160     1.6900 h1         1 X2E       0.030200
     41 H11         -3.9330    -3.1620     1.5420 h1         1 X2E       0.035700
     42 H11A        -2.8070    -1.9670     2.2090 h1         1 X2E       0.035700
     43 HN11        -2.5930    -1.0760    -0.0330 hn         1 X2E       0.431000
     44 H13         -4.1420    -0.0880     1.6140 h1         1 X2E       0.020700
     45 H14         -4.6060     0.3200    -1.3800 hc         1 X2E       0.057700
     46 H14A        -5.0690     1.4410    -0.1170 hc         1 X2E       0.057700
     47 H15         -6.5600    -0.2650     0.9920 hc         1 X2E       0.037367
     48 H15A        -6.1640    -1.4870    -0.2350 hc         1 X2E       0.037367
     49 H15B        -5.9130    -1.8350     1.4910 hc         1 X2E       0.037367
     50 H2          -0.7110    -3.7640    -1.6410 h1         1 X2E       0.062200
     51 H2'A         0.5630    -4.9070    -1.1910 h1         1 X2E       0.062200
     52 H22         -2.4890     0.6920    -2.4440 ha         1 X2E       0.122000
     53 H23         -0.2670     1.8010    -2.5150 ha         1 X2E       0.115000
     54 H24          0.5510     3.0860    -0.5300 ha         1 X2E       0.134000
     55 H26         -3.0740     2.1400     1.5910 ha         1 X2E       0.129000
     56 H3           0.7850    -3.7770     0.9320 h1         1 X2E       0.034700
     57 H4           2.5130    -2.3890    -0.0080 hc         1 X2E       0.063700
     58 H5           2.0810    -1.1700    -2.1480 h1         1 X2E       0.059200
     59 H5'A         0.3230    -1.2380    -1.8730 h1         1 X2E       0.059200
@<TRIPOS>BOND
     1     1     2 ar  
     2     1     7 ar  
     3     2     3 1   
     4     2     4 ar  
     5     3    29 1   
     6     3    30 1   
     7     4     5 ar  
     8     4    31 1   
     9     5     6 ar  
    10     5     8 1   
    11     6     7 ar  
    12     6    32 1   
    13     7     9 1   
    14     8    33 1   
    15     8    34 1   
    16     8    35 1   
    17     9    27 1   
    18     9    36 1   
    19     9    37 1   
    20    10    12 1   
    21    10    26 1   
    22    11    18 1   
    23    11    28 1   
    24    11    38 1   
    25    12    13 1   
    26    12    39 1   
    27    12    40 1   
    28    13    14 1   
    29    13    41 1   
    30    13    42 1   
    31    14    15 1   
    32    14    43 1   
    33    15    16 1   
    34    15    17 1   
    35    15    44 1   
    36    16    19 1   
    37    16    45 1   
    38    16    46 1   
    39    17    47 1   
    40    17    48 1   
    41    17    49 1   
    42    18    26 1   
    43    18    50 1   
    44    18    51 1   
    45    19    20 ar  
    46    19    25 ar  
    47    20    21 ar  
    48    20    52 1   
    49    21    22 ar  
    50    21    53 1   
    51    22    23 ar  
    52    22    54 1   
    53    23    24 1   
    54    23    25 ar  
    55    25    55 1   
    56    26    27 1   
    57    26    56 1   
    58    27    28 1   
    59    27    57 1   
    60    28    58 1   
    61    28    59 1   
@<TRIPOS>SUBSTRUCTURE
     1 X2E         1 TEMP              0 ****  ****    0 ROOT
