@<TRIPOS>MOLECULE
X2F
   19    19     1     0     0
SMALL
No Charge or Current Charge


@<TRIPOS>ATOM
      1 C1          21.6200    68.5330    36.8530 c6         1 X2F       0.355300
      2 C2          20.8930    69.5730    37.7680 c6         1 X2F       0.185300
      3 C3          20.1740    68.8680    38.9560 c6         1 X2F       0.150300
      4 C4          19.2390    67.7430    38.4200 c6         1 X2F       0.096300
      5 C5          20.0600    66.7700    37.5260 c6         1 X2F       0.126600
      6 O1          22.7150    67.8830    37.5030 oh         1 X2F      -0.662000
      7 O3          19.3990    69.7880    39.7500 oh         1 X2F      -0.649000
      8 O4          18.6100    67.0540    39.5220 oh         1 X2F      -0.719000
      9 O5          20.7010    67.4980    36.4450 os         1 X2F      -0.475000
     10 F2          21.8380    70.5010    38.2740 f          1 X2F      -0.239000
     11 H1          21.9890    69.0590    35.9570 h2         1 X2F       0.076700
     12 H2          20.1650    70.1370    37.1690 h1         1 X2F       0.073700
     13 H3          20.9450    68.3950    39.5830 h1         1 X2F       0.073700
     14 H4          18.4680    68.2100    37.7870 h1         1 X2F       0.050700
     15 H51         20.8180    66.2440    38.1250 h1         1 X2F       0.061700
     16 H52         19.3930    66.0130    37.0890 h1         1 X2F       0.061700
     17 HO1         23.0210    67.2030    36.8650 ho         1 X2F       0.460000
     18 HO3         18.7750    69.2130    40.2510 ho         1 X2F       0.461000
     19 HO4         17.9390    66.4360    39.1410 ho         1 X2F       0.511000
@<TRIPOS>BOND
     1     1     2 1   
     2     1     6 1   
     3     1     9 1   
     4     1    11 1   
     5     2     3 1   
     6     2    10 1   
     7     2    12 1   
     8     3     4 1   
     9     3     7 1   
    10     3    13 1   
    11     4     5 1   
    12     4     8 1   
    13     4    14 1   
    14     5     9 1   
    15     5    15 1   
    16     5    16 1   
    17     6    17 1   
    18     7    18 1   
    19     8    19 1   
@<TRIPOS>SUBSTRUCTURE
     1 X2F         1 TEMP              0 ****  ****    0 ROOT
