@<TRIPOS>MOLECULE
X2F
   19    19     1     0     0
SMALL
abcg2


@<TRIPOS>ATOM
      1 C1          21.5810    68.4730    36.8800 c6         1 X2F       0.355300
      2 C2          20.8580    69.4780    37.7770 c6         1 X2F       0.185300
      3 C3          20.1590    68.8020    38.9390 c6         1 X2F       0.150300
      4 C4          19.2430    67.7180    38.3810 c6         1 X2F       0.096300
      5 C5          20.0390    66.7800    37.4800 c6         1 X2F       0.126600
      6 O1          22.6440    67.9390    37.5940 oh         1 X2F      -0.662000
      7 O3          19.4460    69.7840    39.6460 oh         1 X2F      -0.649000
      8 O4          18.6850    67.0310    39.4760 oh         1 X2F      -0.719000
      9 O5          20.6720    67.5020    36.4380 os         1 X2F      -0.475000
     10 F2          21.7740    70.4090    38.2490 f          1 X2F      -0.239000
     11 H1          21.9240    68.9740    35.9680 h2         1 X2F       0.076700
     12 H2          20.1230    70.0160    37.1700 h1         1 X2F       0.073700
     13 H3          20.9100    68.3190    39.5830 h1         1 X2F       0.073700
     14 H4          18.4620    68.2060    37.7800 h1         1 X2F       0.050700
     15 H51         20.7620    66.2130    38.0780 h1         1 X2F       0.061700
     16 H52         19.3740    66.0610    36.9980 h1         1 X2F       0.061700
     17 HO1         23.2350    67.4800    36.9870 ho         1 X2F       0.460000
     18 HO3         18.9880    69.3500    40.3730 ho         1 X2F       0.461000
     19 HO4         17.8830    66.5850    39.1870 ho         1 X2F       0.511000
@<TRIPOS>BOND
     1     1     2 1   
     2     1     6 1   
     3     1     9 1   
     4     1    11 1   
     5     2     3 1   
     6     2    10 1   
     7     2    12 1   
     8     3     4 1   
     9     3     7 1   
    10     3    13 1   
    11     4     5 1   
    12     4     8 1   
    13     4    14 1   
    14     5     9 1   
    15     5    15 1   
    16     5    16 1   
    17     6    17 1   
    18     7    18 1   
    19     8    19 1   
@<TRIPOS>SUBSTRUCTURE
     1 X2F         1 TEMP              0 ****  ****    0 ROOT
