@<TRIPOS>MOLECULE
X2G
   49    51     1     0     0
SMALL
No Charge or Current Charge


@<TRIPOS>ATOM
      1 C13         47.7850   -29.9940    27.3700 ce         1 X2G      -0.120200
      2 C15         48.8620   -30.8080    27.5650 cf         1 X2G      -0.088700
      3 C17         49.2030   -31.3870    28.8240 ch         1 X2G       0.266700
      4 C00         45.5910   -29.4970    19.6760 ca         1 X2G      -0.188000
      5 C01         46.3070   -28.7730    18.7100 ca         1 X2G       0.146100
      6 C02         47.5840   -28.2680    19.0030 ca         1 X2G      -0.130000
      7 C03         48.1360   -28.4610    20.2810 ca         1 X2G      -0.063000
      8 C04         47.4140   -29.1570    21.2660 ca         1 X2G       0.070100
      9 C05         46.1350   -29.6940    20.9660 ca         1 X2G       0.148100
     10 C0C         47.4240   -29.0080    23.6940 ca         1 X2G       0.170100
     11 C0D         44.1950   -31.0580    21.6860 c3         1 X2G       0.134600
     12 C0E         43.6780   -31.6790    23.0020 c3         1 X2G       0.108000
     13 C0K         44.5780   -33.9870    23.3230 c          1 X2G       0.617000
     14 C0N         46.3880   -34.4470    24.9000 c          1 X2G       0.590200
     15 C0O         46.3960   -33.0210    25.2100 cc         1 X2G      -0.382200
     16 C0P         45.5370   -32.1400    24.5960 cd         1 X2G       0.014600
     17 C0V         46.4000   -28.0480    23.7710 ca         1 X2G      -0.219000
     18 C0W         45.8300   -27.7460    25.0130 ca         1 X2G       0.201000
     19 C0X         46.2800   -28.3840    26.1790 ca         1 X2G      -0.176000
     20 C0Y         47.3210   -29.3300    26.1170 ca         1 X2G      -0.014800
     21 C0Z         47.8900   -29.6330    24.8630 ca         1 X2G      -0.143000
     22 N0H         44.6330   -32.6150    23.6500 n          1 X2G      -0.307000
     23 N0M         45.4620   -34.7940    23.9700 ns         1 X2G      -0.467500
     24 N19         49.4480   -31.8430    29.8700 n1         1 X2G      -0.435000
     25 O0A         48.0140   -29.3440    22.4950 os         1 X2G      -0.232200
     26 O0B         45.4520   -30.4020    21.9410 os         1 X2G      -0.336100
     27 O0S         47.1300   -35.2640    25.4150 o          1 X2G      -0.521000
     28 O1C         44.4010   -26.6260    18.2460 o          1 X2G      -0.539500
     29 O1D         44.3980   -27.2990    15.7860 o          1 X2G      -0.539500
     30 H16         47.1600   -29.7770    28.2390 ha         1 X2G       0.190000
     31 H18         49.5290   -31.0490    26.7400 ha         1 X2G       0.208000
     32 H06         44.6200   -29.8950    19.4030 ha         1 X2G       0.146000
     33 H08         48.1540   -27.7380    18.2430 ha         1 X2G       0.148000
     34 H09         49.1260   -28.0740    20.5100 ha         1 X2G       0.146000
     35 H0G         43.4470   -30.3420    21.3210 h1         1 X2G       0.064700
     36 H0F         44.3180   -31.8490    20.9350 h1         1 X2G       0.064700
     37 H0J         43.4470   -30.8660    23.7020 h1         1 X2G       0.079700
     38 H0I         42.7310   -32.1960    22.8020 h1         1 X2G       0.079700
     39 H0T         47.1180   -32.7040    25.9530 ha         1 X2G       0.223000
     40 H0U         45.4890   -31.0700    24.7810 h4         1 X2G       0.209000
     41 H10         46.0410   -27.5390    22.8820 ha         1 X2G       0.146000
     42 H12         45.8210   -28.1310    27.1310 ha         1 X2G       0.141000
     43 H14         48.6850   -30.3660    24.7750 ha         1 X2G       0.141000
     44 H0R         45.4220   -35.7710    23.7300 hn         1 X2G       0.344500
     45 F           46.3640   -26.1310    16.7900 f          1 X2G      -0.275900
     46 F11         44.8380   -26.8330    25.0900 f          1 X2G      -0.170000
     47 O07         45.7710   -28.6140    17.4610 os         1 X2G      -0.478800
     48 O0Q         43.7990   -34.4490    22.5050 o          1 X2G      -0.561000
     49 S1A         45.1080   -27.1530    17.0670 s6         1 X2G       1.587600
@<TRIPOS>BOND
     1     1     2 2   
     2     1    20 1   
     3     1    30 1   
     4     2     3 1   
     5     2    31 1   
     6     3    24 3   
     7     4     5 ar  
     8     4     9 ar  
     9     4    32 1   
    10     5     6 ar  
    11     5    47 1   
    12     6     7 ar  
    13     6    33 1   
    14     7     8 ar  
    15     7    34 1   
    16     8     9 ar  
    17     8    25 1   
    18     9    26 1   
    19    10    17 ar  
    20    10    21 ar  
    21    10    25 1   
    22    11    12 1   
    23    11    26 1   
    24    11    35 1   
    25    11    36 1   
    26    12    22 1   
    27    12    37 1   
    28    12    38 1   
    29    13    22 1   
    30    13    23 1   
    31    13    48 2   
    32    14    15 1   
    33    14    23 1   
    34    14    27 2   
    35    15    16 2   
    36    15    39 1   
    37    16    22 1   
    38    16    40 1   
    39    17    18 ar  
    40    17    41 1   
    41    18    19 ar  
    42    18    46 1   
    43    19    20 ar  
    44    19    42 1   
    45    20    21 ar  
    46    21    43 1   
    47    23    44 1   
    48    28    49 2   
    49    29    49 2   
    50    45    49 1   
    51    47    49 1   
@<TRIPOS>SUBSTRUCTURE
     1 X2G         1 TEMP              0 ****  ****    0 ROOT
