@<TRIPOS>MOLECULE
X2G
   49    51     1     0     0
SMALL
bcc


@<TRIPOS>ATOM
      1 C13         47.8790   -29.9530    27.3310 ce         1 X2G      -0.070200
      2 C15         48.8760   -30.8410    27.4450 cf         1 X2G      -0.038700
      3 C17         49.2550   -31.3580    28.7110 ch         1 X2G       0.177500
      4 C00         45.6970   -29.5450    19.6770 ca         1 X2G      -0.206000
      5 C01         46.4390   -28.7520    18.8170 ca         1 X2G       0.146100
      6 C02         47.6420   -28.1810    19.1660 ca         1 X2G      -0.148000
      7 C03         48.1300   -28.4330    20.4430 ca         1 X2G      -0.081000
      8 C04         47.4200   -29.2250    21.3220 ca         1 X2G       0.070100
      9 C05         46.1860   -29.7840    20.9540 ca         1 X2G       0.148100
     10 C0C         47.4130   -29.1360    23.6910 ca         1 X2G       0.170100
     11 C0D         44.2790   -31.0440    21.6080 c3         1 X2G       0.111400
     12 C0E         43.6990   -31.5390    22.9140 c3         1 X2G       0.108000
     13 C0K         44.5870   -33.7950    23.1760 c          1 X2G       0.826500
     14 C0N         46.2950   -34.2640    24.9100 c          1 X2G       0.732700
     15 C0O         46.2120   -32.8730    25.2800 cc         1 X2G      -0.332200
     16 C0P         45.3700   -32.0620    24.6180 cd         1 X2G       0.064600
     17 C0V         46.3970   -28.1890    23.7520 ca         1 X2G      -0.237000
     18 C0W         45.8980   -27.8640    24.9980 ca         1 X2G       0.165900
     19 C0X         46.3640   -28.4300    26.1660 ca         1 X2G      -0.194000
     20 C0Y         47.4000   -29.3630    26.0860 ca         1 X2G      -0.014800
     21 C0Z         47.9220   -29.7150    24.8430 ca         1 X2G      -0.161000
     22 N0H         44.5660   -32.4840    23.6020 n          1 X2G      -0.374000
     23 N0M         45.4500   -34.6070    23.8640 ns         1 X2G      -0.601500
     24 N19         49.5800   -31.7900    29.7300 n1         1 X2G      -0.345800
     25 O0A         47.9820   -29.5380    22.5270 os         1 X2G      -0.232200
     26 O0B         45.5650   -30.5140    21.8850 os         1 X2G      -0.312900
     27 O0S         47.0110   -35.1020    25.4250 o          1 X2G      -0.596500
     28 O1C         43.9460   -27.3200    18.2540 o          1 X2G      -0.610300
     29 O1D         44.5670   -27.5730    15.8290 o          1 X2G      -0.610300
     30 H16         47.3670   -29.6310    28.2310 ha         1 X2G       0.140000
     31 H18         49.4440   -31.2090    26.5990 ha         1 X2G       0.158000
     32 H06         44.7700   -29.9850    19.3340 ha         1 X2G       0.164000
     33 H08         48.2020   -27.5730    18.4710 ha         1 X2G       0.166000
     34 H09         49.0800   -28.0180    20.7520 ha         1 X2G       0.164000
     35 H0G         43.6080   -30.2740    21.2150 h1         1 X2G       0.064700
     36 H0F         44.3490   -31.8470    20.8690 h1         1 X2G       0.064700
     37 H0J         43.5260   -30.7020    23.5900 h1         1 X2G       0.079700
     38 H0I         42.7320   -31.9990    22.7190 h1         1 X2G       0.079700
     39 H0T         46.8160   -32.4960    26.0900 ha         1 X2G       0.173000
     40 H0U         45.2760   -31.0170    24.8750 h4         1 X2G       0.159000
     41 H10         46.0000   -27.7040    22.8690 ha         1 X2G       0.164000
     42 H12         45.9380   -28.1480    27.1200 ha         1 X2G       0.159000
     43 H14         48.7120   -30.4490    24.7490 ha         1 X2G       0.159000
     44 H0R         45.4690   -35.5720    23.5600 hn         1 X2G       0.344500
     45 F           45.8590   -26.1810    17.3320 f          1 X2G      -0.275900
     46 F11         44.9170   -26.9570    25.0680 f          1 X2G      -0.134900
     47 O07         45.9670   -28.5790    17.5100 os         1 X2G      -0.478800
     48 O0Q         43.8940   -34.1980    22.2650 o          1 X2G      -0.636500
     49 S1A         44.9080   -27.4420    17.2060 s6         1 X2G       1.729200
@<TRIPOS>BOND
     1     1     2 2   
     2     1    20 1   
     3     1    30 1   
     4     2     3 1   
     5     2    31 1   
     6     3    24 3   
     7     4     5 ar  
     8     4     9 ar  
     9     4    32 1   
    10     5     6 ar  
    11     5    47 1   
    12     6     7 ar  
    13     6    33 1   
    14     7     8 ar  
    15     7    34 1   
    16     8     9 ar  
    17     8    25 1   
    18     9    26 1   
    19    10    17 ar  
    20    10    21 ar  
    21    10    25 1   
    22    11    12 1   
    23    11    26 1   
    24    11    35 1   
    25    11    36 1   
    26    12    22 1   
    27    12    37 1   
    28    12    38 1   
    29    13    22 1   
    30    13    23 1   
    31    13    48 2   
    32    14    15 1   
    33    14    23 1   
    34    14    27 2   
    35    15    16 2   
    36    15    39 1   
    37    16    22 1   
    38    16    40 1   
    39    17    18 ar  
    40    17    41 1   
    41    18    19 ar  
    42    18    46 1   
    43    19    20 ar  
    44    19    42 1   
    45    20    21 ar  
    46    21    43 1   
    47    23    44 1   
    48    28    49 2   
    49    29    49 2   
    50    45    49 1   
    51    47    49 1   
@<TRIPOS>SUBSTRUCTURE
     1 X2G         1 TEMP              0 ****  ****    0 ROOT
