@<TRIPOS>MOLECULE
X2I
   81    84     1     0     0
SMALL
No Charge or Current Charge


@<TRIPOS>ATOM
      1 NA          10.1110    -6.1720   -59.3160 ns         1 X2I      -0.403100
      2 C1A         10.3330    -5.3980   -58.2290 c          1 X2I       0.555200
      3 C2A         11.1010    -4.2710   -58.7830 cc         1 X2I      -0.207400
      4 C3A         11.2930    -4.4440   -60.1450 cd         1 X2I      -0.039200
      5 C4A         10.6340    -5.6820   -60.4800 cd         1 X2I       0.009600
      6 CMA         11.5600    -3.1520   -57.8810 c3         1 X2I      -0.018900
      7 CBA         11.0900    -2.6300   -61.9040 c3         1 X2I      -0.085100
      8 OA           9.9690    -5.6200   -57.0840 o          1 X2I      -0.559000
      9 CHA         10.5720    -6.2640   -61.7240 ce         1 X2I      -0.109200
     10 CAA         12.0380    -3.5240   -61.0840 c3         1 X2I      -0.029200
     11 NB          10.7520    -8.4970   -62.8700 na         1 X2I      -0.092000
     12 C1B         10.0290    -7.5470   -62.1540 cc         1 X2I      -0.189800
     13 C2B          8.7850    -8.0940   -61.9520 cd         1 X2I      -0.107300
     14 C3B          8.7530    -9.3860   -62.5440 cd         1 X2I      -0.117300
     15 C4B          9.9820    -9.6310   -63.1090 cc         1 X2I      -0.116300
     16 CHB         10.4980   -10.8310   -63.8640 c3         1 X2I       0.044200
     17 CMB          7.6300    -7.4330   -61.2370 c3         1 X2I      -0.014800
     18 CAB          7.5530   -10.3110   -62.5580 c3         1 X2I       0.022900
     19 CBB          7.3710   -11.1360   -61.2610 c3         1 X2I      -0.203400
     20 CGB          8.5070   -12.1620   -61.0970 c          1 X2I       0.718000
     21 O1B          8.3860   -13.2430   -61.6540 o          1 X2I      -0.738000
     22 O2B          9.4720   -11.8620   -60.4110 o          1 X2I      -0.738000
     23 CHC         10.0640    -9.0020   -68.5960 c3         1 X2I       0.002900
     24 NC          10.0590    -9.8720   -66.1890 na         1 X2I      -0.115000
     25 C1C         10.9050   -10.4970   -65.2790 cc         1 X2I      -0.166300
     26 C2C         12.1010   -10.6810   -65.9280 cd         1 X2I      -0.112300
     27 C3C         11.9800   -10.1620   -67.2460 cd         1 X2I      -0.131300
     28 C4C         10.7100    -9.6650   -67.4030 cc         1 X2I      -0.233300
     29 CMC         13.0780   -10.1620   -68.2850 c3         1 X2I      -0.012800
     30 CAC         13.3450   -11.3210   -65.3510 c3         1 X2I      -0.001100
     31 CBC         14.2340   -10.3110   -64.5890 c3         1 X2I      -0.198400
     32 CGC         15.4900   -11.0230   -64.0570 c          1 X2I       0.721000
     33 O1C         16.4730   -11.0770   -64.7810 o          1 X2I      -0.742500
     34 O2C         15.4340   -11.5460   -62.9550 o          1 X2I      -0.742500
     35 ND          11.4370    -6.9100   -68.4730 ns         1 X2I      -0.496900
     36 C1D         10.0740    -7.4570   -68.5200 c5         1 X2I       0.127900
     37 C2D          9.5380    -6.7900   -69.8020 c2         1 X2I      -0.096400
     38 C3D         10.5230    -6.0730   -70.3840 ce         1 X2I      -0.148200
     39 C4D         11.7460    -6.1530   -69.5550 c          1 X2I       0.564200
     40 CMD          8.1120    -7.0020   -70.2750 c3         1 X2I      -0.046900
     41 CAD         10.3810    -5.3350   -71.6610 ce         1 X2I      -0.163000
     42 CBD         11.3150    -4.5440   -72.2330 c2         1 X2I      -0.295000
     43 OD          12.8440    -5.6570   -69.7530 o          1 X2I      -0.562000
     44 HNA          9.6020    -7.0430   -59.2300 hn         1 X2I       0.368500
     45 HMA2        12.5820    -3.3340   -57.5270 hc         1 X2I       0.036367
     46 HMA1        11.5510    -2.1920   -58.4090 hc         1 X2I       0.036367
     47 HMA3        10.9110    -3.0510   -57.0020 hc         1 X2I       0.036367
     48 HBA1        11.6630    -1.9740   -62.5710 hc         1 X2I       0.032033
     49 HBA2        10.4140    -3.2380   -62.5170 hc         1 X2I       0.032033
     50 HBA3        10.4840    -2.0010   -61.2410 hc         1 X2I       0.032033
     51 HHA1        11.1320    -5.7420   -62.4990 ha         1 X2I       0.174000
     52 HAA1        12.6650    -4.1070   -61.7680 hc         1 X2I       0.051200
     53 H1          12.7270    -2.8840   -60.5190 hc         1 X2I       0.051200
     54 HNB         11.7120    -8.3840   -63.1780 hn         1 X2I       0.356000
     55 HHB1         9.7470   -11.6280   -63.8840 hc         1 X2I       0.097200
     56 H2          11.3470   -11.2520   -63.3140 hc         1 X2I       0.097200
     57 HMB1         6.6960    -7.5470   -61.7990 hc         1 X2I       0.029700
     58 HMB2         7.4810    -7.8700   -60.2430 hc         1 X2I       0.029700
     59 HMB3         7.7960    -6.3570   -61.1090 hc         1 X2I       0.029700
     60 HAB1         6.6420    -9.7220   -62.7200 hc         1 X2I       0.015200
     61 HAB2         7.6020   -10.9940   -63.4140 hc         1 X2I       0.015200
     62 HBB2         7.3640   -10.4190   -60.4310 hc         1 X2I       0.011200
     63 HBB1         6.4150   -11.6550   -61.3980 hc         1 X2I       0.011200
     64 HHC2         9.0270    -9.3510   -68.6820 hc         1 X2I       0.048200
     65 HHC1        10.5590    -9.3290   -69.5180 hc         1 X2I       0.048200
     66 H4           9.1030    -9.5980   -65.9870 hn         1 X2I       0.334000
     67 HMC1        14.0450    -9.9010   -67.8400 hc         1 X2I       0.032700
     68 HMC3        13.1770   -11.1520   -68.7460 hc         1 X2I       0.032700
     69 HMC2        12.8850    -9.4390   -69.0840 hc         1 X2I       0.032700
     70 HAC2        13.0680   -12.1410   -64.6780 hc         1 X2I       0.054200
     71 HAC1        13.9350   -11.7860   -66.1510 hc         1 X2I       0.054200
     72 HBC2        13.6200    -9.9380   -63.7600 hc         1 X2I       0.011200
     73 HBC1        14.5060    -9.5390   -65.3190 hc         1 X2I       0.011200
     74 H1D1         9.4920    -7.1440   -67.6420 h1         1 X2I       0.071700
     75 HMD2         7.4360    -7.1500   -69.4250 hc         1 X2I       0.044700
     76 HMD1         7.7340    -6.1440   -70.8410 hc         1 X2I       0.044700
     77 HMD3         8.0410    -7.8890   -70.9150 hc         1 X2I       0.044700
     78 HAD1         9.4280    -5.4550   -72.1780 ha         1 X2I       0.153000
     79 HBD2        11.1210    -4.0400   -73.1810 ha         1 X2I       0.170000
     80 HBD1        12.2930    -4.3620   -71.7910 ha         1 X2I       0.170000
     81 HND         12.1560    -7.1420   -67.7990 hn         1 X2I       0.361500
@<TRIPOS>BOND
     1     1     2 1   
     2     1     5 1   
     3     1    44 1   
     4     2     3 1   
     5     2     8 2   
     6     3     4 2   
     7     3     6 1   
     8     4     5 1   
     9     4    10 1   
    10     5     9 2   
    11     6    45 1   
    12     6    46 1   
    13     6    47 1   
    14     7    10 1   
    15     7    48 1   
    16     7    49 1   
    17     7    50 1   
    18     9    12 1   
    19     9    51 1   
    20    10    52 1   
    21    10    53 1   
    22    11    12 1   
    23    11    15 1   
    24    11    54 1   
    25    12    13 2   
    26    13    14 1   
    27    13    17 1   
    28    14    15 2   
    29    14    18 1   
    30    15    16 1   
    31    16    25 1   
    32    16    55 1   
    33    16    56 1   
    34    17    57 1   
    35    17    58 1   
    36    17    59 1   
    37    18    19 1   
    38    18    60 1   
    39    18    61 1   
    40    19    20 1   
    41    19    62 1   
    42    19    63 1   
    43    20    21 1   
    44    20    22 1   
    45    23    28 1   
    46    23    36 1   
    47    23    64 1   
    48    23    65 1   
    49    24    25 1   
    50    24    28 1   
    51    24    66 1   
    52    25    26 2   
    53    26    27 1   
    54    26    30 1   
    55    27    28 2   
    56    27    29 1   
    57    29    67 1   
    58    29    68 1   
    59    29    69 1   
    60    30    31 1   
    61    30    70 1   
    62    30    71 1   
    63    31    32 1   
    64    31    72 1   
    65    31    73 1   
    66    32    33 1   
    67    32    34 1   
    68    35    36 1   
    69    35    39 1   
    70    35    81 1   
    71    36    37 1   
    72    36    74 1   
    73    37    38 2   
    74    37    40 1   
    75    38    39 1   
    76    38    41 1   
    77    39    43 2   
    78    40    75 1   
    79    40    76 1   
    80    40    77 1   
    81    41    42 2   
    82    41    78 1   
    83    42    79 1   
    84    42    80 1   
@<TRIPOS>SUBSTRUCTURE
     1 X2I         1 TEMP              0 ****  ****    0 ROOT
