@<TRIPOS>MOLECULE
X2I
   81    84     1     0     0
SMALL
abcg2


@<TRIPOS>ATOM
      1 NA          10.3580    -6.2730   -59.8100 ns         1 X2I      -0.403100
      2 C1A         10.6850    -5.3190   -58.8860 c          1 X2I       0.555200
      3 C2A         11.2070    -4.1710   -59.6540 cc         1 X2I      -0.207400
      4 C3A         11.2100    -4.5030   -60.9630 cd         1 X2I      -0.039200
      5 C4A         10.6740    -5.8570   -61.0940 cd         1 X2I       0.009600
      6 CMA         11.6300    -2.9150   -58.9840 c3         1 X2I      -0.018900
      7 CBA         10.4070    -2.9720   -62.7810 c3         1 X2I      -0.085100
      8 OA          10.5650    -5.4230   -57.6770 o          1 X2I      -0.559000
      9 CHA         10.5450    -6.5670   -62.2300 ce         1 X2I      -0.109200
     10 CAA         11.6060    -3.6590   -62.1270 c3         1 X2I      -0.029200
     11 NB          10.4480    -8.7820   -63.2530 na         1 X2I      -0.092000
     12 C1B          9.9410    -7.8680   -62.3670 cc         1 X2I      -0.189800
     13 C2B          8.8020    -8.4330   -61.8090 cd         1 X2I      -0.107300
     14 C3B          8.6570    -9.7320   -62.3700 cd         1 X2I      -0.117300
     15 C4B          9.6990    -9.9130   -63.2570 cc         1 X2I      -0.116300
     16 CHB         10.0640   -11.0810   -64.1180 c3         1 X2I       0.044200
     17 CMB          7.8160    -7.7720   -60.9010 c3         1 X2I      -0.014800
     18 CAB          7.5720   -10.7070   -62.0390 c3         1 X2I       0.022900
     19 CBB          7.6480   -11.2250   -60.6030 c3         1 X2I      -0.203400
     20 CGB          8.9500   -11.9840   -60.2800 c          1 X2I       0.718000
     21 O1B          9.3380   -12.8170   -61.1270 o          1 X2I      -0.738000
     22 O2B          9.4980   -11.7290   -59.1880 o          1 X2I      -0.738000
     23 CHC         10.0700    -8.7800   -68.5210 c3         1 X2I       0.002900
     24 NC           9.8720    -9.9420   -66.3260 na         1 X2I      -0.115000
     25 C1C         10.6150   -10.6690   -65.4420 cc         1 X2I      -0.166300
     26 C2C         11.8600   -10.8570   -65.9980 cd         1 X2I      -0.112300
     27 C3C         11.8510   -10.2150   -67.2750 cd         1 X2I      -0.131300
     28 C4C         10.6030    -9.6580   -67.4440 cc         1 X2I      -0.233300
     29 CMC         12.9930   -10.1710   -68.2370 c3         1 X2I      -0.012800
     30 CAC         13.0360   -11.5360   -65.3710 c3         1 X2I      -0.001100
     31 CBC         14.0460   -10.5420   -64.8020 c3         1 X2I      -0.198400
     32 CGC         15.2620   -11.1450   -64.0710 c          1 X2I       0.721000
     33 O1C         16.0740   -10.3190   -63.6040 o          1 X2I      -0.742500
     34 O2C         15.3440   -12.3880   -64.0030 o          1 X2I      -0.742500
     35 ND          11.6130    -6.9210   -67.9770 ns         1 X2I      -0.496900
     36 C1D         10.2390    -7.2870   -68.1750 c5         1 X2I       0.127900
     37 C2D          9.8230    -6.3700   -69.2850 c2         1 X2I      -0.096400
     38 C3D         10.8660    -5.6090   -69.6730 ce         1 X2I      -0.148200
     39 C4D         12.0440    -5.9700   -68.8340 c          1 X2I       0.564200
     40 CMD          8.4320    -6.3970   -69.8010 c3         1 X2I      -0.046900
     41 CAD         10.8580    -4.6030   -70.7220 ce         1 X2I      -0.163000
     42 CBD         11.8710    -3.8220   -71.1030 c2         1 X2I      -0.295000
     43 OD          13.1760    -5.5160   -68.8870 o          1 X2I      -0.562000
     44 HNA         10.0790    -7.2100   -59.5680 hn         1 X2I       0.368500
     45 HMA2        12.3570    -3.1130   -58.1950 hc         1 X2I       0.036367
     46 HMA1        12.0800    -2.2140   -59.6850 hc         1 X2I       0.036367
     47 HMA3        10.7820    -2.4130   -58.5140 hc         1 X2I       0.036367
     48 HBA1        10.7290    -2.3630   -63.6260 hc         1 X2I       0.032033
     49 HBA2         9.6840    -3.7000   -63.1500 hc         1 X2I       0.032033
     50 HBA3         9.8960    -2.3200   -62.0720 hc         1 X2I       0.032033
     51 HHA1        10.9570    -6.1220   -63.1290 ha         1 X2I       0.174000
     52 HAA1        12.1270    -4.2690   -62.8690 hc         1 X2I       0.051200
     53 H1          12.3220    -2.9020   -61.8000 hc         1 X2I       0.051200
     54 HNB         11.2890    -8.6540   -63.7950 hn         1 X2I       0.356000
     55 HHB1         9.1780   -11.7090   -64.2420 hc         1 X2I       0.097200
     56 H2          10.8000   -11.7120   -63.6130 hc         1 X2I       0.097200
     57 HMB1         6.8010    -8.0890   -61.1450 hc         1 X2I       0.029700
     58 HMB2         7.9700    -8.0170   -59.8470 hc         1 X2I       0.029700
     59 HMB3         7.8500    -6.6870   -60.9910 hc         1 X2I       0.029700
     60 HAB1         6.5940   -10.2390   -62.1950 hc         1 X2I       0.015200
     61 HAB2         7.6100   -11.5550   -62.7260 hc         1 X2I       0.015200
     62 HBB2         7.5160   -10.4010   -59.8990 hc         1 X2I       0.011200
     63 HBB1         6.8030   -11.9050   -60.4350 hc         1 X2I       0.011200
     64 HHC2         9.0090    -8.9780   -68.6900 hc         1 X2I       0.048200
     65 HHC1        10.5850    -8.9830   -69.4620 hc         1 X2I       0.048200
     66 H4           8.9180    -9.6550   -66.1760 hn         1 X2I       0.334000
     67 HMC1        13.8030    -9.5240   -67.8900 hc         1 X2I       0.032700
     68 HMC3        13.4260   -11.1620   -68.3860 hc         1 X2I       0.032700
     69 HMC2        12.6840    -9.8000   -69.2140 hc         1 X2I       0.032700
     70 HAC2        12.7020   -12.2080   -64.5770 hc         1 X2I       0.054200
     71 HAC1        13.5300   -12.1740   -66.1100 hc         1 X2I       0.054200
     72 HBC2        13.5310    -9.8620   -64.1140 hc         1 X2I       0.011200
     73 HBC1        14.4190    -9.8980   -65.6060 hc         1 X2I       0.011200
     74 H1D1         9.6450    -7.0690   -67.2790 h1         1 X2I       0.071700
     75 HMD2         7.7170    -6.3760   -68.9770 hc         1 X2I       0.044700
     76 HMD1         8.2130    -5.5630   -70.4630 hc         1 X2I       0.044700
     77 HMD3         8.2440    -7.3200   -70.3550 hc         1 X2I       0.044700
     78 HAD1         9.9120    -4.4870   -71.2400 ha         1 X2I       0.153000
     79 HBD2        11.7300    -3.1060   -71.9010 ha         1 X2I       0.170000
     80 HBD1        12.8500    -3.8650   -70.6510 ha         1 X2I       0.170000
     81 HND         12.2140    -7.3790   -67.3110 hn         1 X2I       0.361500
@<TRIPOS>BOND
     1     1     2 1   
     2     1     5 1   
     3     1    44 1   
     4     2     3 1   
     5     2     8 2   
     6     3     4 2   
     7     3     6 1   
     8     4     5 1   
     9     4    10 1   
    10     5     9 2   
    11     6    45 1   
    12     6    46 1   
    13     6    47 1   
    14     7    10 1   
    15     7    48 1   
    16     7    49 1   
    17     7    50 1   
    18     9    12 1   
    19     9    51 1   
    20    10    52 1   
    21    10    53 1   
    22    11    12 1   
    23    11    15 1   
    24    11    54 1   
    25    12    13 2   
    26    13    14 1   
    27    13    17 1   
    28    14    15 2   
    29    14    18 1   
    30    15    16 1   
    31    16    25 1   
    32    16    55 1   
    33    16    56 1   
    34    17    57 1   
    35    17    58 1   
    36    17    59 1   
    37    18    19 1   
    38    18    60 1   
    39    18    61 1   
    40    19    20 1   
    41    19    62 1   
    42    19    63 1   
    43    20    21 1   
    44    20    22 1   
    45    23    28 1   
    46    23    36 1   
    47    23    64 1   
    48    23    65 1   
    49    24    25 1   
    50    24    28 1   
    51    24    66 1   
    52    25    26 2   
    53    26    27 1   
    54    26    30 1   
    55    27    28 2   
    56    27    29 1   
    57    29    67 1   
    58    29    68 1   
    59    29    69 1   
    60    30    31 1   
    61    30    70 1   
    62    30    71 1   
    63    31    32 1   
    64    31    72 1   
    65    31    73 1   
    66    32    33 1   
    67    32    34 1   
    68    35    36 1   
    69    35    39 1   
    70    35    81 1   
    71    36    37 1   
    72    36    74 1   
    73    37    38 2   
    74    37    40 1   
    75    38    39 1   
    76    38    41 1   
    77    39    43 2   
    78    40    75 1   
    79    40    76 1   
    80    40    77 1   
    81    41    42 2   
    82    41    78 1   
    83    42    79 1   
    84    42    80 1   
@<TRIPOS>SUBSTRUCTURE
     1 X2I         1 TEMP              0 ****  ****    0 ROOT
