@<TRIPOS>MOLECULE
X2J
   49    51     1     0     0
SMALL
No Charge or Current Charge


@<TRIPOS>ATOM
      1 C15         48.7030   -31.0590    27.5320 ce         1 X2J      -0.090700
      2 C00         45.4060   -29.5710    19.7010 ca         1 X2J      -0.187000
      3 C01         46.1220   -28.8390    18.7420 ca         1 X2J       0.145100
      4 C02         47.4020   -28.3440    19.0360 ca         1 X2J      -0.130000
      5 C03         47.9570   -28.5560    20.3090 ca         1 X2J      -0.063000
      6 C04         47.2360   -29.2610    21.2890 ca         1 X2J       0.071100
      7 C05         45.9540   -29.7880    20.9870 ca         1 X2J       0.147100
      8 C0C         47.2560   -29.1600    23.7210 ca         1 X2J       0.152100
      9 C0D         43.9990   -31.1350    21.7010 c3         1 X2J       0.134600
     10 C0E         43.4800   -31.7610    23.0130 c3         1 X2J       0.108000
     11 C0K         44.3390   -34.0890    23.3010 c          1 X2J       0.617000
     12 C0N         46.1490   -34.6020    24.8610 c          1 X2J       0.591200
     13 C0O         46.1860   -33.1800    25.1870 cc         1 X2J      -0.383200
     14 C0P         45.3400   -32.2760    24.5890 cd         1 X2J       0.015600
     15 C0V         46.2120   -28.2220    23.8230 ca         1 X2J      -0.167000
     16 C0W         45.6440   -27.9510    25.0740 ca         1 X2J       0.141000
     17 C0X         46.1220   -28.5970    26.2260 ca         1 X2J      -0.125000
     18 C0Y         47.1830   -29.5200    26.1420 ca         1 X2J      -0.032800
     19 C0Z         47.7460   -29.7920    24.8770 ca         1 X2J      -0.125000
     20 C13         47.6690   -30.1820    27.3690 cf         1 X2J      -0.118200
     21 C17         49.0710   -31.6350    28.7860 cg         1 X2J       0.266700
     22 N0H         44.4220   -32.7220    23.6440 n          1 X2J      -0.307000
     23 N0M         45.2110   -34.9210    23.9330 ns         1 X2J      -0.466500
     24 N19         49.3370   -32.0840    29.8290 n1         1 X2J      -0.436000
     25 O0B         45.2700   -30.5040    21.9550 os         1 X2J      -0.337100
     26 O0S         46.8780   -35.4390    25.3620 o          1 X2J      -0.521000
     27 O1C         44.2190   -26.6810    18.3150 o          1 X2J      -0.539500
     28 O1D         44.2080   -27.3180    15.8450 o          1 X2J      -0.539500
     29 Cl11        44.3240   -26.7970    25.2010 cl         1 X2J      -0.186000
     30 H18         49.3140   -31.3640    26.6850 ha         1 X2J       0.207000
     31 H06         44.4310   -29.9620    19.4270 ha         1 X2J       0.146000
     32 H08         47.9710   -27.8070    18.2810 ha         1 X2J       0.148000
     33 H09         48.9500   -28.1770    20.5400 ha         1 X2J       0.146000
     34 H0G         43.2620   -30.4020    21.3500 h1         1 X2J       0.064700
     35 H0F         44.1030   -31.9190    20.9400 h1         1 X2J       0.064700
     36 H0J         43.2700   -30.9520    23.7240 h1         1 X2J       0.079700
     37 H0I         42.5220   -32.2580    22.8150 h1         1 X2J       0.079700
     38 H0T         46.9180   -32.8860    25.9300 ha         1 X2J       0.223000
     39 H0U         45.3140   -31.2070    24.7870 h4         1 X2J       0.209000
     40 H10         45.8350   -27.7090    22.9430 ha         1 X2J       0.143000
     41 H12         45.6660   -28.3700    27.1870 ha         1 X2J       0.138000
     42 H14         48.5590   -30.5030    24.7690 ha         1 X2J       0.141000
     43 H16         47.1050   -29.9180    28.2670 ha         1 X2J       0.190000
     44 H0R         45.1500   -35.8940    23.6810 hn         1 X2J       0.344500
     45 F1          46.1800   -26.1700    16.8600 f          1 X2J      -0.275900
     46 O0A         47.8420   -29.4660    22.5120 os         1 X2J      -0.232200
     47 O07         45.5820   -28.6610    17.4970 os         1 X2J      -0.478800
     48 O0Q         43.5460   -34.5270    22.4830 o          1 X2J      -0.561000
     49 S1A         44.9220   -27.1920    17.1260 s6         1 X2J       1.586600
@<TRIPOS>BOND
     1     1    20 2   
     2     1    21 1   
     3     1    30 1   
     4     2     3 ar  
     5     2     7 ar  
     6     2    31 1   
     7     3     4 ar  
     8     3    47 1   
     9     4     5 ar  
    10     4    32 1   
    11     5     6 ar  
    12     5    33 1   
    13     6     7 ar  
    14     6    46 1   
    15     7    25 1   
    16     8    15 ar  
    17     8    19 ar  
    18     8    46 1   
    19     9    10 1   
    20     9    25 1   
    21     9    34 1   
    22     9    35 1   
    23    10    22 1   
    24    10    36 1   
    25    10    37 1   
    26    11    22 1   
    27    11    23 1   
    28    11    48 2   
    29    12    13 1   
    30    12    23 1   
    31    12    26 2   
    32    13    14 2   
    33    13    38 1   
    34    14    22 1   
    35    14    39 1   
    36    15    16 ar  
    37    15    40 1   
    38    16    17 ar  
    39    16    29 1   
    40    17    18 ar  
    41    17    41 1   
    42    18    19 ar  
    43    18    20 1   
    44    19    42 1   
    45    20    43 1   
    46    21    24 3   
    47    23    44 1   
    48    27    49 2   
    49    28    49 2   
    50    45    49 1   
    51    47    49 1   
@<TRIPOS>SUBSTRUCTURE
     1 X2J         1 TEMP              0 ****  ****    0 ROOT
