@<TRIPOS>MOLECULE
X2J
   49    51     1     0     0
SMALL
bcc


@<TRIPOS>ATOM
      1 C15         48.7470   -31.0440    27.4340 ce         1 X2J      -0.040700
      2 C00         45.4930   -29.6220    19.7000 ca         1 X2J      -0.205000
      3 C01         46.2450   -28.8290    18.8490 ca         1 X2J       0.145100
      4 C02         47.4620   -28.2890    19.1980 ca         1 X2J      -0.148000
      5 C03         47.9530   -28.5700    20.4670 ca         1 X2J      -0.081000
      6 C04         47.2330   -29.3600    21.3400 ca         1 X2J       0.071100
      7 C05         45.9880   -29.8920    20.9700 ca         1 X2J       0.147100
      8 C0C         47.2360   -29.3110    23.7110 ca         1 X2J       0.152100
      9 C0D         44.0630   -31.1320    21.6180 c3         1 X2J       0.111400
     10 C0E         43.4850   -31.6320    22.9230 c3         1 X2J       0.108000
     11 C0K         44.3510   -33.9010    23.1560 c          1 X2J       0.826500
     12 C0N         46.0740   -34.4010    24.8660 c          1 X2J       0.733700
     13 C0O         46.0080   -33.0130    25.2490 cc         1 X2J      -0.333200
     14 C0P         45.1650   -32.1890    24.6060 cd         1 X2J       0.065600
     15 C0V         46.2140   -28.3720    23.7940 ca         1 X2J      -0.185000
     16 C0W         45.7120   -28.0600    25.0470 ca         1 X2J       0.049400
     17 C0X         46.2050   -28.6420    26.2010 ca         1 X2J      -0.143000
     18 C0Y         47.2490   -29.5630    26.1030 ca         1 X2J      -0.032800
     19 C0Z         47.7620   -29.8970    24.8510 ca         1 X2J      -0.143000
     20 C13         47.7450   -30.1590    27.3390 cf         1 X2J      -0.068200
     21 C17         49.1440   -31.5680    28.6920 cg         1 X2J       0.177500
     22 N0H         44.3440   -32.5940    23.5970 n          1 X2J      -0.374000
     23 N0M         45.2140   -34.7260    23.8260 ns         1 X2J      -0.600500
     24 N19         49.4820   -32.0080    29.7030 n1         1 X2J      -0.346800
     25 O0B         45.3590   -30.6250    21.8940 os         1 X2J      -0.313900
     26 O0S         46.7890   -35.2500    25.3650 o          1 X2J      -0.596500
     27 O1C         43.7840   -27.3200    18.3420 o          1 X2J      -0.610300
     28 O1D         44.3850   -27.5200    15.9070 o          1 X2J      -0.610300
     29 CL11        44.4290   -26.9080    25.1650 cl         1 X2J      -0.094400
     30 H18         49.3060   -31.4040    26.5800 ha         1 X2J       0.157000
     31 H06         44.5560   -30.0390    19.3580 ha         1 X2J       0.164000
     32 H08         48.0290   -27.6800    18.5090 ha         1 X2J       0.166000
     33 H09         48.9120   -28.1770    20.7770 ha         1 X2J       0.164000
     34 H0G         43.4030   -30.3480    21.2360 h1         1 X2J       0.064700
     35 H0F         44.1180   -31.9280    20.8700 h1         1 X2J       0.064700
     36 H0J         43.3270   -30.7990    23.6070 h1         1 X2J       0.079700
     37 H0I         42.5110   -32.0770    22.7300 h1         1 X2J       0.079700
     38 H0T         46.6270   -32.6490    26.0540 ha         1 X2J       0.173000
     39 H0U         45.0820   -31.1460    24.8750 h4         1 X2J       0.159000
     40 H10         45.8130   -27.8870    22.9140 ha         1 X2J       0.161000
     41 H12         45.7910   -28.3840    27.1670 ha         1 X2J       0.156000
     42 H14         48.5590   -30.6220    24.7420 ha         1 X2J       0.159000
     43 H16         47.2420   -29.8440    28.2460 ha         1 X2J       0.140000
     44 H0R         45.2210   -35.6890    23.5120 hn         1 X2J       0.344500
     45 F1          45.7270   -26.2140    17.4440 f          1 X2J      -0.275900
     46 O0A         47.7970   -29.6970    22.5370 os         1 X2J      -0.232200
     47 O07         45.7640   -28.6170    17.5510 os         1 X2J      -0.478800
     48 O0Q         43.6450   -34.2880    22.2480 o          1 X2J      -0.636500
     49 S1A         44.7380   -27.4400    17.2850 s6         1 X2J       1.728200
@<TRIPOS>BOND
     1     1    20 2   
     2     1    21 1   
     3     1    30 1   
     4     2     3 ar  
     5     2     7 ar  
     6     2    31 1   
     7     3     4 ar  
     8     3    47 1   
     9     4     5 ar  
    10     4    32 1   
    11     5     6 ar  
    12     5    33 1   
    13     6     7 ar  
    14     6    46 1   
    15     7    25 1   
    16     8    15 ar  
    17     8    19 ar  
    18     8    46 1   
    19     9    10 1   
    20     9    25 1   
    21     9    34 1   
    22     9    35 1   
    23    10    22 1   
    24    10    36 1   
    25    10    37 1   
    26    11    22 1   
    27    11    23 1   
    28    11    48 2   
    29    12    13 1   
    30    12    23 1   
    31    12    26 2   
    32    13    14 2   
    33    13    38 1   
    34    14    22 1   
    35    14    39 1   
    36    15    16 ar  
    37    15    40 1   
    38    16    17 ar  
    39    16    29 1   
    40    17    18 ar  
    41    17    41 1   
    42    18    19 ar  
    43    18    20 1   
    44    19    42 1   
    45    20    43 1   
    46    21    24 3   
    47    23    44 1   
    48    27    49 2   
    49    28    49 2   
    50    45    49 1   
    51    47    49 1   
@<TRIPOS>SUBSTRUCTURE
     1 X2J         1 TEMP              0 ****  ****    0 ROOT
