@<TRIPOS>MOLECULE
X2K
   34    36     1     0     0
SMALL
No Charge or Current Charge


@<TRIPOS>ATOM
      1 CAB          2.6430     3.0510     0.1340 c3         1 X2K      -0.025800
      2 CAN          2.9220     1.5750     0.0250 cc         1 X2K      -0.079300
      3 CAH          4.2240     1.0390    -0.0280 cc         1 X2K      -0.202000
      4 CAL          4.1580    -0.3200    -0.1240 cd         1 X2K      -0.118300
      5 CAA          5.2650    -1.3360    -0.2090 c3         1 X2K      -0.033800
      6 NAJ          2.7970    -0.6330    -0.1310 na         1 X2K      -0.067000
      7 CAO          2.0260     0.5350    -0.0390 cd         1 X2K      -0.221800
      8 CAE          0.5600     0.6340    -0.0150 cf         1 X2K       0.024800
      9 CAQ         -0.4140    -0.3320    -0.0730 cc         1 X2K      -0.210400
     10 CAS         -1.8590    -0.0850    -0.0390 ca         1 X2K      -0.047800
     11 CAI         -2.5910     1.1100     0.0550 ca         1 X2K      -0.128000
     12 CAM         -4.0010     1.0310     0.0650 ca         1 X2K       0.256000
     13 NAC         -4.7480     2.1760     0.1560 nv         1 X2K      -1.057000
     14 CAF         -4.6500    -0.2240    -0.0170 ca         1 X2K      -0.149000
     15 CAG         -3.9020    -1.4180    -0.1110 ca         1 X2K      -0.097000
     16 CAR         -2.5090    -1.3030    -0.1180 ca         1 X2K       0.008600
     17 NAK         -1.5250    -2.2840    -0.1990 ns         1 X2K      -0.386100
     18 CAP         -0.2410    -1.8120    -0.1800 c          1 X2K       0.583200
     19 OAD          0.7720    -2.4940    -0.2400 o          1 X2K      -0.597000
     20 HAB1         2.0570     3.4000    -0.7240 hc         1 X2K       0.040033
     21 HAB2         2.0770     3.2740     1.0460 hc         1 X2K       0.040033
     22 HAB3         3.5720     3.6320     0.1640 hc         1 X2K       0.040033
     23 HAH          5.1340     1.6310     0.0040 ha         1 X2K       0.132000
     24 HAA1         5.2180    -2.0400     0.6310 hc         1 X2K       0.050700
     25 HAA2         5.1980    -1.9150    -1.1380 hc         1 X2K       0.050700
     26 HAA3         6.2490    -0.8540    -0.1860 hc         1 X2K       0.050700
     27 HAJ          2.4050    -1.5730    -0.1930 hn         1 X2K       0.397000
     28 HAE          0.1740     1.6500     0.0620 ha         1 X2K       0.183000
     29 HAI         -2.0910     2.0720     0.1170 ha         1 X2K       0.115000
     30 HAC1        -4.2960     3.0730     0.3250 hn         1 X2K       0.437500
     31 HAC2        -5.7590     2.1230     0.2730 hn         1 X2K       0.437500
     32 HAF         -5.7360    -0.2750    -0.0090 ha         1 X2K       0.114000
     33 HAG         -4.3900    -2.3880    -0.1750 ha         1 X2K       0.119000
     34 HAK         -1.7310    -3.2730    -0.2680 hn         1 X2K       0.338500
@<TRIPOS>BOND
     1     1     2 1   
     2     1    20 1   
     3     1    21 1   
     4     1    22 1   
     5     2     3 1   
     6     2     7 2   
     7     3     4 2   
     8     3    23 1   
     9     4     5 1   
    10     4     6 1   
    11     5    24 1   
    12     5    25 1   
    13     5    26 1   
    14     6     7 1   
    15     6    27 1   
    16     7     8 1   
    17     8     9 2   
    18     8    28 1   
    19     9    10 1   
    20     9    18 1   
    21    10    11 ar  
    22    10    16 ar  
    23    11    12 ar  
    24    11    29 1   
    25    12    13 1   
    26    12    14 ar  
    27    13    30 1   
    28    13    31 1   
    29    14    15 ar  
    30    14    32 1   
    31    15    16 ar  
    32    15    33 1   
    33    16    17 1   
    34    17    18 1   
    35    17    34 1   
    36    18    19 2   
@<TRIPOS>SUBSTRUCTURE
     1 X2K         1 TEMP              0 ****  ****    0 ROOT
