@<TRIPOS>MOLECULE
X2K
   34    36     1     0     0
SMALL
bcc


@<TRIPOS>ATOM
      1 CAB          2.5740     3.0710     0.0830 c3         1 X2K      -0.025800
      2 CAN          2.9180     1.6210     0.0130 cc         1 X2K      -0.079300
      3 CAH          4.2010     1.0680    -0.0320 cc         1 X2K      -0.220000
      4 CAL          4.0730    -0.3160    -0.1140 cd         1 X2K      -0.067600
      5 CAA          5.1230    -1.3650    -0.1780 c3         1 X2K      -0.033800
      6 NAJ          2.7640    -0.6050    -0.1200 na         1 X2K      -0.118100
      7 CAO          2.0160     0.5460    -0.0440 cd         1 X2K      -0.171100
      8 CAE          0.6090     0.6220    -0.0210 cf         1 X2K       0.074800
      9 CAQ         -0.3680    -0.3300    -0.0800 cc         1 X2K      -0.210400
     10 CAS         -1.8000    -0.0700    -0.0480 ca         1 X2K      -0.047800
     11 CAI         -2.5390     1.0980     0.0440 ca         1 X2K      -0.146000
     12 CAM         -3.9380     1.0320     0.0470 ca         1 X2K       0.117600
     13 NAC         -4.6960     2.1970     0.0790 nv         1 X2K      -0.808200
     14 CAF         -4.5610    -0.2190    -0.0400 ca         1 X2K      -0.167000
     15 CAG         -3.8240    -1.3960    -0.1320 ca         1 X2K      -0.115000
     16 CAR         -2.4480    -1.3050    -0.1350 ca         1 X2K       0.008600
     17 NAK         -1.4820    -2.3050    -0.2150 ns         1 X2K      -0.453100
     18 CAP         -0.2220    -1.7960    -0.1880 c          1 X2K       0.725700
     19 OAD          0.8000    -2.4820    -0.2460 o          1 X2K      -0.672500
     20 HAB1         2.2170     3.4470    -0.8780 hc         1 X2K       0.040033
     21 HAB2         1.7940     3.2750     0.8180 hc         1 X2K       0.040033
     22 HAB3         3.4470     3.6600     0.3580 hc         1 X2K       0.040033
     23 HAH          5.1360     1.6080    -0.0060 ha         1 X2K       0.150000
     24 HAA1         5.0590    -2.0440     0.6740 hc         1 X2K       0.050700
     25 HAA2         5.0320    -1.9680    -1.0830 hc         1 X2K       0.050700
     26 HAA3         6.1120    -0.9120    -0.1730 hc         1 X2K       0.050700
     27 HAJ          2.3260    -1.5250    -0.1730 hn         1 X2K       0.346700
     28 HAE          0.2480     1.6430     0.0590 ha         1 X2K       0.133000
     29 HAI         -2.0470     2.0630     0.1140 ha         1 X2K       0.133000
     30 HAC1        -4.2400     2.9770     0.5260 hn         1 X2K       0.382300
     31 HAC2        -5.6270     2.0780     0.4470 hn         1 X2K       0.382300
     32 HAF         -5.6430    -0.2750    -0.0370 ha         1 X2K       0.132000
     33 HAG         -4.3290    -2.3520    -0.1970 ha         1 X2K       0.137000
     34 HAK         -1.6770    -3.2920    -0.2810 hn         1 X2K       0.338500
@<TRIPOS>BOND
     1     1     2 1   
     2     1    20 1   
     3     1    21 1   
     4     1    22 1   
     5     2     3 1   
     6     2     7 2   
     7     3     4 2   
     8     3    23 1   
     9     4     5 1   
    10     4     6 1   
    11     5    24 1   
    12     5    25 1   
    13     5    26 1   
    14     6     7 1   
    15     6    27 1   
    16     7     8 1   
    17     8     9 2   
    18     8    28 1   
    19     9    10 1   
    20     9    18 1   
    21    10    11 ar  
    22    10    16 ar  
    23    11    12 ar  
    24    11    29 1   
    25    12    13 1   
    26    12    14 ar  
    27    13    30 1   
    28    13    31 1   
    29    14    15 ar  
    30    14    32 1   
    31    15    16 ar  
    32    15    33 1   
    33    16    17 1   
    34    17    18 1   
    35    17    34 1   
    36    18    19 2   
@<TRIPOS>SUBSTRUCTURE
     1 X2K         1 TEMP              0 ****  ****    0 ROOT
