@<TRIPOS>MOLECULE
X2L
   34    36     1     0     0
SMALL
No Charge or Current Charge


@<TRIPOS>ATOM
      1 CAH         -2.2390    -1.6030    -0.6540 ca         1 X2L      -0.037500
      2 CAO         -3.6430    -1.5430    -0.6730 ca         1 X2L      -0.188500
      3 CAM         -4.3210    -0.5330     0.0260 ca         1 X2L       0.166100
      4 OAB         -5.7000    -0.5250    -0.0290 os         1 X2L      -0.339100
      5 CAP         -3.5820     0.4230     0.7550 ca         1 X2L      -0.188500
      6 CAI         -2.1770     0.3630     0.7730 ca         1 X2L      -0.037500
      7 CAQ         -1.4970    -0.6420     0.0580 ca         1 X2L      -0.128800
      8 CAF         -0.0120    -0.7340     0.0850 ce         1 X2L      -0.023200
      9 CAS          0.9400     0.2520    -0.0830 cd         1 X2L      -0.156400
     10 CAU          2.3980     0.0390    -0.0170 ca         1 X2L      -0.068800
     11 CAK          3.1490    -1.1210     0.2340 ca         1 X2L      -0.121000
     12 CAN          4.5570    -1.0170     0.2380 ca         1 X2L       0.253000
     13 CAG          5.1850     0.2290    -0.0040 ca         1 X2L      -0.143000
     14 CAJ          4.4170     1.3870    -0.2530 ca         1 X2L      -0.103000
     15 CAT          3.0260     1.2480    -0.2500 ca         1 X2L       0.023600
     16 CAA         -6.4890     0.4670     0.6520 c3         1 X2L       0.147900
     17 NAL          2.0280     2.1920    -0.4630 ns         1 X2L      -0.401100
     18 CAR          0.7490     1.7060    -0.3940 c          1 X2L       0.578200
     19 NAB          5.3240    -2.1280     0.4770 nv         1 X2L      -1.060000
     20 OAA         -0.2740     2.3490    -0.5730 o          1 X2L      -0.550000
     21 HAH         -1.7260    -2.3940    -1.2000 ha         1 X2L       0.132500
     22 HAO         -4.2090    -2.2840    -1.2310 ha         1 X2L       0.125500
     23 HAP         -4.0750     1.2120     1.3150 ha         1 X2L       0.125500
     24 HAA1        -7.5570     0.2900     0.4760 h1         1 X2L       0.044033
     25 HAA2        -6.3130     0.4300     1.7350 h1         1 X2L       0.044033
     26 HAA3        -6.2470     1.4740     0.2900 h1         1 X2L       0.044033
     27 HAI         -1.6170     1.0940     1.3520 ha         1 X2L       0.132500
     28 HAF          0.3740    -1.7400     0.2510 ha         1 X2L       0.165000
     29 HAK          2.6640    -2.0740     0.4210 ha         1 X2L       0.115000
     30 HAG          6.2700     0.3000     0.0020 ha         1 X2L       0.114000
     31 HAB1         4.8910    -3.0470     0.5450 hn         1 X2L       0.439000
     32 HAB2         6.3370    -2.0860     0.3770 hn         1 X2L       0.439000
     33 HAJ          4.8880     2.3490    -0.4410 ha         1 X2L       0.120000
     34 HAL          2.2210     3.1630    -0.6750 hn         1 X2L       0.337500
@<TRIPOS>BOND
     1     1     2 ar  
     2     1     7 ar  
     3     1    21 1   
     4     2     3 ar  
     5     2    22 1   
     6     3     4 1   
     7     3     5 ar  
     8     4    16 1   
     9     5     6 ar  
    10     5    23 1   
    11     6     7 ar  
    12     6    27 1   
    13     7     8 1   
    14     8     9 2   
    15     8    28 1   
    16     9    10 1   
    17     9    18 1   
    18    10    11 ar  
    19    10    15 ar  
    20    11    12 ar  
    21    11    29 1   
    22    12    13 ar  
    23    12    19 1   
    24    13    14 ar  
    25    13    30 1   
    26    14    15 ar  
    27    14    33 1   
    28    15    17 1   
    29    16    24 1   
    30    16    25 1   
    31    16    26 1   
    32    17    18 1   
    33    17    34 1   
    34    18    20 2   
    35    19    31 1   
    36    19    32 1   
@<TRIPOS>SUBSTRUCTURE
     1 X2L         1 TEMP              0 ****  ****    0 ROOT
