@<TRIPOS>MOLECULE
X2L
   34    36     1     0     0
SMALL
bcc


@<TRIPOS>ATOM
      1 CAH         -2.1240    -1.6830     0.0180 ca         1 X2L      -0.055500
      2 CAO         -3.4940    -1.8030     0.0480 ca         1 X2L      -0.206500
      3 CAM         -4.2900    -0.6630     0.1940 ca         1 X2L       0.166100
      4 OAB         -5.6140    -0.8590     0.2080 os         1 X2L      -0.315900
      5 CAP         -3.6750     0.5850     0.3130 ca         1 X2L      -0.206500
      6 CAI         -2.2960     0.6910     0.2800 ca         1 X2L      -0.055500
      7 CAQ         -1.4790    -0.4370     0.1280 ca         1 X2L      -0.128800
      8 CAF         -0.0330    -0.4600     0.0700 ce         1 X2L       0.026800
      9 CAS          0.9580     0.4600     0.0990 cd         1 X2L      -0.156400
     10 CAU          2.3770     0.1150     0.0030 ca         1 X2L      -0.068800
     11 CAK          3.0330    -1.0990    -0.1060 ca         1 X2L      -0.139000
     12 CAN          4.4310    -1.1240    -0.1850 ca         1 X2L       0.114600
     13 CAG          5.1340     0.0860    -0.1470 ca         1 X2L      -0.161000
     14 CAJ          4.4790     1.3090    -0.0380 ca         1 X2L      -0.121000
     15 CAT          3.1030     1.3070     0.0360 ca         1 X2L       0.023600
     16 CAA         -6.4710     0.2620     0.3360 c3         1 X2L       0.124700
     17 NAL          2.2090     2.3680     0.1510 ns         1 X2L      -0.468100
     18 CAR          0.9140     1.9510     0.2000 c          1 X2L       0.720700
     19 NAB          5.1040    -2.3270    -0.3550 nv         1 X2L      -0.811200
     20 OAA         -0.0450     2.6990     0.3060 o          1 X2L      -0.625500
     21 HAH         -1.5270    -2.5800    -0.0990 ha         1 X2L       0.150500
     22 HAO         -3.9610    -2.7760    -0.0430 ha         1 X2L       0.143500
     23 HAP         -4.2590     1.4870     0.4330 ha         1 X2L       0.143500
     24 HAA1        -7.4860    -0.1230     0.2960 h1         1 X2L       0.044033
     25 HAA2        -6.3250     0.7770     1.2880 h1         1 X2L       0.044033
     26 HAA3        -6.3290     0.9750    -0.4790 h1         1 X2L       0.044033
     27 HAI         -1.8490     1.6670     0.3730 ha         1 X2L       0.150500
     28 HAF          0.3410    -1.4760    -0.0270 ha         1 X2L       0.115000
     29 HAK          2.4770    -2.0300    -0.1310 ha         1 X2L       0.133000
     30 HAG          6.2160     0.0720    -0.2040 ha         1 X2L       0.132000
     31 HAB1         4.6310    -3.1310     0.0270 hn         1 X2L       0.383800
     32 HAB2         6.0680    -2.3120    -0.0620 hn         1 X2L       0.383800
     33 HAJ          5.0480     2.2300    -0.0100 ha         1 X2L       0.138000
     34 HAL          2.4730     3.3400     0.2000 hn         1 X2L       0.337500
@<TRIPOS>BOND
     1     1     2 ar  
     2     1     7 ar  
     3     1    21 1   
     4     2     3 ar  
     5     2    22 1   
     6     3     4 1   
     7     3     5 ar  
     8     4    16 1   
     9     5     6 ar  
    10     5    23 1   
    11     6     7 ar  
    12     6    27 1   
    13     7     8 1   
    14     8     9 2   
    15     8    28 1   
    16     9    10 1   
    17     9    18 1   
    18    10    11 ar  
    19    10    15 ar  
    20    11    12 ar  
    21    11    29 1   
    22    12    13 ar  
    23    12    19 1   
    24    13    14 ar  
    25    13    30 1   
    26    14    15 ar  
    27    14    33 1   
    28    15    17 1   
    29    16    24 1   
    30    16    25 1   
    31    16    26 1   
    32    17    18 1   
    33    17    34 1   
    34    18    20 2   
    35    19    31 1   
    36    19    32 1   
@<TRIPOS>SUBSTRUCTURE
     1 X2L         1 TEMP              0 ****  ****    0 ROOT
