@<TRIPOS>MOLECULE
X2M
   32    34     1     0     0
SMALL
abcg2


@<TRIPOS>ATOM
      1 C3          -0.7040     1.5820    -0.2230 c          1 X2M       0.584200
      2 C5          -0.6880     0.1170    -0.0690 cc         1 X2M      -0.208400
      3 C6          -2.8650     0.8630    -0.1120 ca         1 X2M       0.050600
      4 C7          -2.0810    -0.2950    -0.0020 ca         1 X2M      -0.086800
      5 C8          -2.7020    -1.5260     0.1400 ca         1 X2M      -0.066000
      6 C9          -4.0920    -1.5820     0.1710 ca         1 X2M      -0.136000
      7 C10         -4.8520    -0.4210     0.0610 ca         1 X2M      -0.083000
      8 C11         -4.2450     0.8250    -0.0830 ca         1 X2M      -0.139000
      9 C19          0.3870    -0.7220     0.0030 cf         1 X2M       0.023800
     10 C21          1.7760    -0.4970    -0.0370 cd         1 X2M      -0.220800
     11 O4           0.2310     2.3760    -0.3190 o          1 X2M      -0.590000
     12 N1          -2.0180     1.9510    -0.2420 ns         1 X2M      -0.391100
     13 C26          2.7860    -1.4690     0.0500 cc         1 X2M      -0.077300
     14 C25          4.0040    -0.7860    -0.0180 cc         1 X2M      -0.202000
     15 C24          3.7300     0.5740    -0.1450 cd         1 X2M      -0.117300
     16 N22          2.3980     0.7240    -0.1550 na         1 X2M      -0.067000
     17 CAB          2.5970    -2.9430     0.1720 c3         1 X2M      -0.026800
     18 CAA          4.6680     1.7210    -0.2440 c3         1 X2M      -0.034800
     19 H1          -2.3200     2.9080    -0.3380 hn         1 X2M       0.339500
     20 H19          0.1370    -1.7730     0.1180 ha         1 X2M       0.184000
     21 H11         -4.8380     1.7260    -0.1700 ha         1 X2M       0.119000
     22 H8          -2.1200    -2.4360     0.2290 ha         1 X2M       0.114000
     23 H9          -4.5870    -2.5380     0.2840 ha         1 X2M       0.115000
     24 H10         -5.9320    -0.4830     0.0870 ha         1 X2M       0.114000
     25 H22          1.8690     1.5920    -0.2360 hn         1 X2M       0.395000
     26 H25          4.9910    -1.2210     0.0240 ha         1 X2M       0.133000
     27 HAB1         2.2820    -3.3890    -0.7740 hc         1 X2M       0.040700
     28 HAB2         3.5270    -3.4280     0.4650 hc         1 X2M       0.040700
     29 HAB3         1.8430    -3.2020     0.9170 hc         1 X2M       0.040700
     30 HAA1         4.5160     2.2850    -1.1660 hc         1 X2M       0.051033
     31 HAA2         4.5380     2.4160     0.5880 hc         1 X2M       0.051033
     32 HAA3         5.6970     1.3690    -0.2310 hc         1 X2M       0.051033
@<TRIPOS>BOND
     1     1     2 1   
     2     1    11 2   
     3     1    12 1   
     4     2     4 1   
     5     2     9 2   
     6     3     4 ar  
     7     3     8 ar  
     8     3    12 1   
     9     4     5 ar  
    10     5     6 ar  
    11     5    22 1   
    12     6     7 ar  
    13     6    23 1   
    14     7     8 ar  
    15     7    24 1   
    16     8    21 1   
    17     9    10 1   
    18     9    20 1   
    19    10    13 2   
    20    10    16 1   
    21    12    19 1   
    22    13    14 1   
    23    13    17 1   
    24    14    15 2   
    25    14    26 1   
    26    15    16 1   
    27    15    18 1   
    28    16    25 1   
    29    17    27 1   
    30    17    28 1   
    31    17    29 1   
    32    18    30 1   
    33    18    31 1   
    34    18    32 1   
@<TRIPOS>SUBSTRUCTURE
     1 X2M         1 TEMP              0 ****  ****    0 ROOT
