@<TRIPOS>MOLECULE
X2M
   32    34     1     0     0
SMALL
No Charge or Current Charge


@<TRIPOS>ATOM
      1 C3          -0.7260     1.6010    -0.1990 c          1 X2M       0.584200
      2 C5          -0.7400     0.1140    -0.0570 cc         1 X2M      -0.208400
      3 C6          -2.9260     0.8580    -0.1070 ca         1 X2M       0.050600
      4 C7          -2.1510    -0.2840    -0.0060 ca         1 X2M      -0.086800
      5 C8          -2.7520    -1.5470     0.1200 ca         1 X2M      -0.066000
      6 C9          -4.1630    -1.6100     0.1390 ca         1 X2M      -0.136000
      7 C10         -4.9450    -0.4330     0.0350 ca         1 X2M      -0.083000
      8 C11         -4.3230     0.8280    -0.0910 ca         1 X2M      -0.139000
      9 C19          0.3310    -0.7410     0.0140 cf         1 X2M       0.023800
     10 C21          1.7780    -0.4900    -0.0240 cd         1 X2M      -0.220800
     11 O4           0.2080     2.3850    -0.2820 o          1 X2M      -0.590000
     12 N1          -2.0530     1.9340    -0.2180 ns         1 X2M      -0.391100
     13 C26          2.7790    -1.4280     0.0550 cc         1 X2M      -0.077300
     14 C25          4.0170    -0.7590    -0.0200 cc         1 X2M      -0.202000
     15 C24          3.8080     0.5820    -0.1460 cd         1 X2M      -0.117300
     16 N22          2.4220     0.7500    -0.1480 na         1 X2M      -0.067000
     17 CAB          2.6570    -2.9220     0.1980 c3         1 X2M      -0.026800
     18 CAA          4.8010     1.7070    -0.2620 c3         1 X2M      -0.034800
     19 H1          -2.3640     2.8930    -0.3060 hn         1 X2M       0.339500
     20 H19          0.0550    -1.7910     0.1160 ha         1 X2M       0.184000
     21 H11         -4.9090     1.7400    -0.1720 ha         1 X2M       0.119000
     22 H8          -2.1580    -2.4530     0.2000 ha         1 X2M       0.114000
     23 H9          -4.6560    -2.5750     0.2360 ha         1 X2M       0.115000
     24 H10         -6.0310    -0.5010     0.0520 ha         1 X2M       0.114000
     25 H22          1.9330     1.6430    -0.2280 hn         1 X2M       0.395000
     26 H25          4.9840    -1.2520     0.0170 ha         1 X2M       0.133000
     27 HAB1         2.1060    -3.3510    -0.6470 hc         1 X2M       0.040700
     28 HAB2         3.6430    -3.4020     0.2340 hc         1 X2M       0.040700
     29 HAB3         2.1240    -3.1830     1.1200 hc         1 X2M       0.040700
     30 HAA1         4.6690     2.2530    -1.2040 hc         1 X2M       0.051033
     31 HAA2         4.6860     2.4210     0.5620 hc         1 X2M       0.051033
     32 HAA3         5.8310     1.3310    -0.2360 hc         1 X2M       0.051033
@<TRIPOS>BOND
     1     1     2 1   
     2     1    11 2   
     3     1    12 1   
     4     2     4 1   
     5     2     9 2   
     6     3     4 ar  
     7     3     8 ar  
     8     3    12 1   
     9     4     5 ar  
    10     5     6 ar  
    11     5    22 1   
    12     6     7 ar  
    13     6    23 1   
    14     7     8 ar  
    15     7    24 1   
    16     8    21 1   
    17     9    10 1   
    18     9    20 1   
    19    10    13 2   
    20    10    16 1   
    21    12    19 1   
    22    13    14 1   
    23    13    17 1   
    24    14    15 2   
    25    14    26 1   
    26    15    16 1   
    27    15    18 1   
    28    16    25 1   
    29    17    27 1   
    30    17    28 1   
    31    17    29 1   
    32    18    30 1   
    33    18    31 1   
    34    18    32 1   
@<TRIPOS>SUBSTRUCTURE
     1 X2M         1 TEMP              0 ****  ****    0 ROOT
