@<TRIPOS>MOLECULE
X2N
   93    99     1     0     0
SMALL
abcg2


@<TRIPOS>ATOM
      1 CAA         13.2870     2.2430     1.1950 c3         1 X2N      -0.090100
      2 CAB         13.2560    -1.3590    -2.3950 c3         1 X2N      -0.123100
      3 OAD         14.4040    -1.7540    -0.2850 oh         1 X2N      -0.661000
      4 CAG        -10.9200     1.6120    -1.6090 ca         1 X2N      -0.198000
      5 CAH         -2.0960     1.5280     0.9990 ca         1 X2N      -0.145500
      6 CAI         -2.1540    -0.2230    -0.6320 ca         1 X2N      -0.145500
      7 CAJ         -0.7210     1.5750     0.9050 ca         1 X2N      -0.111500
      8 CAK         -0.7620    -0.1830    -0.7070 ca         1 X2N      -0.111500
      9 CAL          6.2840    -0.0000     1.2490 ca         1 X2N      -0.160500
     10 CAM          6.3270     0.2750    -1.1290 ca         1 X2N      -0.160500
     11 CAN          7.6590    -0.1350     1.2570 ca         1 X2N      -0.072000
     12 CAO          7.7020     0.1060    -1.1240 ca         1 X2N      -0.072000
     13 CAP        -11.1180     2.5170    -0.5860 ca         1 X2N       0.208000
     14 CAQ        -12.0100    -2.0990     2.2710 cc         1 X2N       0.509900
     15 CAR         -9.4920     0.2990    -0.1240 ca         1 X2N      -0.165300
     16 CAS        -11.8740    -2.0160     0.1980 cd         1 X2N       0.406400
     17 CAT         10.4550    -1.2560     0.7610 cc         1 X2N       0.373800
     18 CAU         13.9660     1.0000     0.6410 c3         1 X2N      -0.085400
     19 CAV         -7.3620    -0.9250    -0.7680 c5         1 X2N      -0.101400
     20 CAW          2.0340     0.0350    -1.0590 c6         1 X2N       0.179300
     21 CAX          2.0850     0.6320     1.2490 c6         1 X2N       0.179300
     22 CAY          3.4930     0.4310    -1.2020 c6         1 X2N       0.199800
     23 CAZ          3.5380     1.0400     1.1200 c6         1 X2N       0.199800
     24 CBB         -4.9660    -0.2270    -0.3890 c3         1 X2N       0.175600
     25 NBD        -12.7650    -1.9600     1.1610 nc         1 X2N      -0.697000
     26 NBE        -10.7260    -2.2370     2.0430 nd         1 X2N      -0.517800
     27 NBF         11.7270    -1.1310     0.6240 n2         1 X2N      -0.511300
     28 OBH         -8.0760    -0.8400     1.4440 os         1 X2N      -0.440000
     29 CBI        -10.1120     0.5230    -1.3460 ca         1 X2N       0.191000
     30 CBJ         -9.7410     1.2380     0.8720 ca         1 X2N      -0.029000
     31 CBK         -2.8330     0.6250     0.2290 ca         1 X2N       0.117100
     32 CBL         -0.0150     0.7120     0.0540 ca         1 X2N       0.239000
     33 CBM          5.5760     0.2060     0.0540 ca         1 X2N       0.313000
     34 CBN          8.3780    -0.0990     0.0680 ca         1 X2N       0.013600
     35 CBO        -10.5440     2.3490     0.6570 ca         1 X2N      -0.167000
     36 CBP         10.7160     0.5310    -0.5300 c          1 X2N       0.567000
     37 CBQ         14.0040    -0.7650    -1.2090 c3         1 X2N       0.168300
     38 CBS         13.2290     0.3870    -0.5470 c3         1 X2N       0.114700
     39 NBT          1.3860     0.8000    -0.0160 nh         1 X2N      -0.766400
     40 NBU          4.1920     0.2930     0.0580 nh         1 X2N      -0.796400
     41 NBV        -10.6520    -2.1870     0.7100 na         1 X2N      -0.057700
     42 NBW          9.7780    -0.2840     0.0880 n          1 X2N      -0.236500
     43 NBX         11.8950    -0.0400    -0.1710 n          1 X2N      -0.164800
     44 C2          -8.6010    -0.9110     0.1360 c5         1 X2N       0.227300
     45 C32         -6.7400    -0.3430     1.4370 c5         1 X2N       0.157600
     46 C7          -6.4120    -0.0040    -0.0150 c5         1 X2N      -0.102700
     47 HAA1        13.1720     3.0120     0.4290 hc         1 X2N       0.036367
     48 HAA2        12.2960     2.0230     1.5970 hc         1 X2N       0.036367
     49 HAA3        13.8760     2.6710     2.0070 hc         1 X2N       0.036367
     50 HAU1        14.9760     1.2520     0.3070 hc         1 X2N       0.057200
     51 HAU2        14.0790     0.2530     1.4290 hc         1 X2N       0.057200
     52 HAB1        12.3260    -1.8460    -2.0970 hc         1 X2N       0.043700
     53 HAB2        13.0130    -0.5880    -3.1280 hc         1 X2N       0.043700
     54 HAB3        13.8770    -2.1040    -2.8930 hc         1 X2N       0.043700
     55 HBQ         14.9310    -0.3180    -1.5810 h1         1 X2N       0.069700
     56 HAD         13.6140    -2.0600     0.1810 ho         1 X2N       0.463000
     57 HAG        -11.3800     1.7420    -2.5800 ha         1 X2N       0.151000
     58 HAH         -2.6140     2.2080     1.6650 ha         1 X2N       0.121000
     59 HAJ         -0.1870     2.3100     1.4940 ha         1 X2N       0.116500
     60 HAI         -2.6750    -0.9400    -1.2520 ha         1 X2N       0.121000
     61 HAK         -0.2780    -0.8800    -1.3770 ha         1 X2N       0.116500
     62 HAL          5.7630    -0.0710     2.1940 ha         1 X2N       0.118500
     63 HAN          8.1700    -0.2810     2.2000 ha         1 X2N       0.126000
     64 HAM          5.8500     0.4630    -2.0800 ha         1 X2N       0.118500
     65 HAO          8.2400     0.1390    -2.0620 ha         1 X2N       0.126000
     66 HBO        -10.7190     3.0670     1.4480 ha         1 X2N       0.141000
     67 HBJ         -9.3000     1.1030     1.8480 ha         1 X2N       0.143000
     68 HAS        -12.0650    -1.9520    -0.8630 h5         1 X2N       0.063100
     69 HAT          9.9690    -2.0380     1.3230 h5         1 X2N       0.075800
     70 HBS         13.0850     1.1570    -1.3080 h1         1 X2N       0.080700
     71 HAV1        -6.9560    -1.9420    -0.8130 hc         1 X2N       0.065700
     72 HAV2        -7.5540    -0.6020    -1.7880 hc         1 X2N       0.065700
     73 H7          -6.6790     1.0360    -0.2260 hc         1 X2N       0.080700
     74 HAW1         1.5420     0.2300    -2.0130 h1         1 X2N       0.046200
     75 HAW2         1.9750    -1.0500    -0.8720 h1         1 X2N       0.046200
     76 HAY1         3.9330    -0.2340    -1.9450 h1         1 X2N       0.048950
     77 HAY2         3.5600     1.4570    -1.5910 h1         1 X2N       0.048950
     78 HAX1         2.0280    -0.4110     1.5940 h1         1 X2N       0.046200
     79 HAX2         1.6270     1.2540     2.0170 h1         1 X2N       0.046200
     80 HAZ1         3.6010     2.1200     0.9260 h1         1 X2N       0.048950
     81 HAZ2         4.0200     0.8520     2.0760 h1         1 X2N       0.048950
     82 HBB1        -4.8210    -0.0370    -1.4590 h1         1 X2N       0.038200
     83 HBB2        -4.6850    -1.2710    -0.1960 h1         1 X2N       0.038200
     84 H321        -6.6700     0.5230     2.0980 h1         1 X2N       0.058200
     85 H322        -6.0730    -1.1210     1.8240 h1         1 X2N       0.058200
     86 OAC         10.5140     1.5150    -1.2190 o          1 X2N      -0.553000
     87 OBG         -4.1770     0.6540     0.3860 os         1 X2N      -0.349100
     88 CBC         -9.3920    -2.2200     0.0110 c3         1 X2N       0.093600
     89 FAE         -9.9430    -0.3640    -2.3430 f          1 X2N      -0.187000
     90 FAF        -11.8920     3.5840    -0.8150 f          1 X2N      -0.168000
     91 HAQ        -12.4170    -2.1050     3.2710 h5         1 X2N       0.063100
     92 HBC1        -8.7910    -3.0410     0.4020 h1         1 X2N       0.078200
     93 HBC2        -9.6050    -2.4380    -1.0340 h1         1 X2N       0.078200
@<TRIPOS>BOND
     1     1    18 1   
     2     1    47 1   
     3     1    48 1   
     4     1    49 1   
     5     2    37 1   
     6     2    52 1   
     7     2    53 1   
     8     2    54 1   
     9     3    37 1   
    10     3    56 1   
    11     4    13 ar  
    12     4    29 ar  
    13     4    57 1   
    14     5     7 ar  
    15     5    31 ar  
    16     5    58 1   
    17     6     8 ar  
    18     6    31 ar  
    19     6    60 1   
    20     7    32 ar  
    21     7    59 1   
    22     8    32 ar  
    23     8    61 1   
    24     9    11 ar  
    25     9    33 ar  
    26     9    62 1   
    27    10    12 ar  
    28    10    33 ar  
    29    10    64 1   
    30    11    34 ar  
    31    11    63 1   
    32    12    34 ar  
    33    12    65 1   
    34    13    35 ar  
    35    13    90 1   
    36    14    25 1   
    37    14    26 2   
    38    14    91 1   
    39    15    29 ar  
    40    15    30 ar  
    41    15    44 1   
    42    16    25 2   
    43    16    41 1   
    44    16    68 1   
    45    17    27 2   
    46    17    42 1   
    47    17    69 1   
    48    18    38 1   
    49    18    50 1   
    50    18    51 1   
    51    19    44 1   
    52    19    46 1   
    53    19    71 1   
    54    19    72 1   
    55    20    22 1   
    56    20    39 1   
    57    20    74 1   
    58    20    75 1   
    59    21    23 1   
    60    21    39 1   
    61    21    78 1   
    62    21    79 1   
    63    22    40 1   
    64    22    76 1   
    65    22    77 1   
    66    23    40 1   
    67    23    80 1   
    68    23    81 1   
    69    24    46 1   
    70    24    82 1   
    71    24    83 1   
    72    24    87 1   
    73    26    41 1   
    74    27    43 1   
    75    28    44 1   
    76    28    45 1   
    77    29    89 1   
    78    30    35 ar  
    79    30    67 1   
    80    31    87 1   
    81    32    39 1   
    82    33    40 1   
    83    34    42 1   
    84    35    66 1   
    85    36    42 1   
    86    36    43 1   
    87    36    86 2   
    88    37    38 1   
    89    37    55 1   
    90    38    43 1   
    91    38    70 1   
    92    41    88 1   
    93    44    88 1   
    94    45    46 1   
    95    45    84 1   
    96    45    85 1   
    97    46    73 1   
    98    88    92 1   
    99    88    93 1   
@<TRIPOS>SUBSTRUCTURE
     1 X2N         1 TEMP              0 ****  ****    0 ROOT
