@<TRIPOS>MOLECULE
X2N
   93    99     1     0     0
SMALL
No Charge or Current Charge


@<TRIPOS>ATOM
      1 CAA         13.4470     2.1150     1.6050 c3         1 X2N      -0.090100
      2 CAB         13.7800    -0.6600    -2.7370 c3         1 X2N      -0.123100
      3 OAD         14.5890    -1.6200    -0.6780 oh         1 X2N      -0.661000
      4 CAG        -11.5470     1.0000    -2.3560 ca         1 X2N      -0.198000
      5 CAH         -2.0930     1.2770     1.0950 ca         1 X2N      -0.145500
      6 CAI         -2.2550    -0.3900    -0.6650 ca         1 X2N      -0.145500
      7 CAJ         -0.6890     1.1960     1.0430 ca         1 X2N      -0.111500
      8 CAK         -0.8500    -0.4680    -0.7150 ca         1 X2N      -0.111500
      9 CAL          6.4160    -0.8020     1.0330 ca         1 X2N      -0.160500
     10 CAM          6.5220     0.6630    -0.8850 ca         1 X2N      -0.160500
     11 CAN          7.8200    -0.8810     1.0550 ca         1 X2N      -0.072000
     12 CAO          7.9260     0.5900    -0.8650 ca         1 X2N      -0.072000
     13 CAP        -11.8420     2.2320    -1.7660 ca         1 X2N       0.208000
     14 CAQ        -11.6880    -2.2210     3.2510 cc         1 X2N       0.509900
     15 CAR         -9.9590     0.4980    -0.5480 ca         1 X2N      -0.165300
     16 CAS        -11.8610    -1.2210     1.4060 cd         1 X2N       0.406400
     17 CAT         10.7330    -1.3620     0.6640 cc         1 X2N       0.373800
     18 CAU         14.2360     1.0650     0.7930 c3         1 X2N      -0.085400
     19 CAV         -7.7050    -0.5520    -0.8480 c5         1 X2N      -0.101400
     20 CAW          2.0940    -0.1780    -1.1330 c6         1 X2N       0.179300
     21 CAX          2.1330    -0.0440     1.3530 c6         1 X2N       0.179300
     22 CAY          3.5710     0.3360    -1.1840 c6         1 X2N       0.199800
     23 CAZ          3.6090     0.4740     1.3020 c6         1 X2N       0.199800
     24 CBB         -5.1490    -0.1590    -0.4810 c3         1 X2N       0.175600
     25 NBD        -12.5470    -1.4630     2.5090 nc         1 X2N      -0.697000
     26 NBE        -10.5120    -2.4900     2.7130 nd         1 X2N      -0.517800
     27 NBF         12.0360    -1.2700     0.5360 n2         1 X2N      -0.511300
     28 OBH         -8.4040     0.1610     1.3210 os         1 X2N      -0.440000
     29 CBI        -10.6150     0.1420    -1.7540 ca         1 X2N       0.191000
     30 CBJ        -10.2760     1.7540     0.0300 ca         1 X2N      -0.029000
     31 CBK         -2.8820     0.4880     0.2450 ca         1 X2N       0.117100
     32 CBL         -0.0510     0.3230     0.1390 ca         1 X2N       0.239000
     33 CBM          5.7510    -0.0240     0.0710 ca         1 X2N       0.313000
     34 CBN          8.6000    -0.1510     0.1310 ca         1 X2N       0.013600
     35 CBO        -11.2100     2.6110    -0.5770 ca         1 X2N      -0.167000
     36 CBP         10.9720     0.5600    -0.4210 c          1 X2N       0.567000
     37 CBQ         14.3910    -0.3710    -1.3510 c3         1 X2N       0.168300
     38 CBS         13.4970     0.5650    -0.4790 c3         1 X2N       0.114700
     39 NBT          1.3640     0.2570     0.1020 nh         1 X2N      -0.766400
     40 NBU          4.3380     0.0350     0.0680 nh         1 X2N      -0.796400
     41 NBV        -10.6180    -1.8330     1.5140 na         1 X2N      -0.057700
     42 NBW         10.0370    -0.3080     0.0950 n          1 X2N      -0.236500
     43 NBX         12.1900    -0.0640    -0.1430 n          1 X2N      -0.164800
     44 C2          -8.9430    -0.4560     0.1250 c5         1 X2N       0.227300
     45 C32         -6.9890    -0.0830     1.3580 c5         1 X2N       0.157600
     46 C7          -6.5910     0.2320    -0.0950 c5         1 X2N      -0.102700
     47 HAA1        13.1940     2.9800     0.9810 hc         1 X2N       0.036367
     48 HAA2        12.5170     1.6890     2.0010 hc         1 X2N       0.036367
     49 HAA3        14.0450     2.4680     2.4540 hc         1 X2N       0.036367
     50 HAU1        15.1960     1.5060     0.4970 hc         1 X2N       0.057200
     51 HAU2        14.4680     0.2140     1.4440 hc         1 X2N       0.057200
     52 HAB1        12.8190    -1.1810    -2.6480 hc         1 X2N       0.043700
     53 HAB2        13.6140     0.2750    -3.2860 hc         1 X2N       0.043700
     54 HAB3        14.4560    -1.2860    -3.3320 hc         1 X2N       0.043700
     55 HBQ         15.3580     0.1280    -1.5120 h1         1 X2N       0.069700
     56 HAD         13.7520    -1.7540    -0.1650 ho         1 X2N       0.463000
     57 HAG        -12.0380     0.7080    -3.2800 ha         1 X2N       0.151000
     58 HAH         -2.5700     1.9580     1.7960 ha         1 X2N       0.121000
     59 HAJ         -0.0950     1.8240     1.6990 ha         1 X2N       0.116500
     60 HAI         -2.8350    -1.0170    -1.3360 ha         1 X2N       0.121000
     61 HAK         -0.3880    -1.1570    -1.4150 ha         1 X2N       0.116500
     62 HAL          5.8410    -1.3650     1.7620 ha         1 X2N       0.118500
     63 HAN          8.2890    -1.4960     1.8180 ha         1 X2N       0.126000
     64 HAM          6.0400     1.2620    -1.6520 ha         1 X2N       0.118500
     65 HAO          8.4790     1.1090    -1.6420 ha         1 X2N       0.126000
     66 HBO        -11.4450     3.5700    -0.1230 ha         1 X2N       0.141000
     67 HBJ         -9.8060     2.0790     0.9550 ha         1 X2N       0.143000
     68 HAS        -12.1780    -0.6580     0.5360 h5         1 X2N       0.063100
     69 HAT         10.2260    -2.1930     1.1360 h5         1 X2N       0.075800
     70 HBS         13.2970     1.4540    -1.0920 h1         1 X2N       0.080700
     71 HAV1        -7.4140    -1.5970    -1.0110 hc         1 X2N       0.065700
     72 HAV2        -7.8860    -0.1270    -1.8420 hc         1 X2N       0.065700
     73 H7          -6.6900     1.3080    -0.2830 hc         1 X2N       0.080700
     74 HAW1         1.5740     0.1880    -2.0310 h1         1 X2N       0.046200
     75 HAW2         2.1050    -1.2760    -1.1860 h1         1 X2N       0.046200
     76 HAY1         4.0630    -0.1250    -2.0530 h1         1 X2N       0.048950
     77 HAY2         3.5570     1.4230    -1.3550 h1         1 X2N       0.048950
     78 HAX1         2.1510    -1.1310     1.5160 h1         1 X2N       0.046200
     79 HAX2         1.6440     0.4020     2.2300 h1         1 X2N       0.046200
     80 HAZ1         3.5930     1.5730     1.3450 h1         1 X2N       0.048950
     81 HAZ2         4.1250     0.1260     2.2070 h1         1 X2N       0.048950
     82 HBB1        -4.9860     0.0600    -1.5440 h1         1 X2N       0.038200
     83 HBB2        -5.0040    -1.2350    -0.3150 h1         1 X2N       0.038200
     84 H321        -6.5100     0.5790     2.0920 h1         1 X2N       0.058200
     85 H322        -6.7970    -1.1300     1.6340 h1         1 X2N       0.058200
     86 OAC         10.7930     1.6420    -0.9670 o          1 X2N      -0.553000
     87 OBG         -4.2530     0.6080     0.3410 os         1 X2N      -0.349100
     88 CBC         -9.5280    -1.8480     0.5170 c3         1 X2N       0.093600
     89 FAE        -10.3570    -1.0380    -2.3580 f          1 X2N      -0.187000
     90 FAF        -12.7390     3.0580    -2.3460 f          1 X2N      -0.168000
     91 HAQ        -12.0010    -2.5690     4.2290 h5         1 X2N       0.063100
     92 HBC1        -8.7120    -2.4630     0.9150 h1         1 X2N       0.078200
     93 HBC2        -9.8940    -2.3610    -0.3790 h1         1 X2N       0.078200
@<TRIPOS>BOND
     1     1    18 1   
     2     1    47 1   
     3     1    48 1   
     4     1    49 1   
     5     2    37 1   
     6     2    52 1   
     7     2    53 1   
     8     2    54 1   
     9     3    37 1   
    10     3    56 1   
    11     4    13 ar  
    12     4    29 ar  
    13     4    57 1   
    14     5     7 ar  
    15     5    31 ar  
    16     5    58 1   
    17     6     8 ar  
    18     6    31 ar  
    19     6    60 1   
    20     7    32 ar  
    21     7    59 1   
    22     8    32 ar  
    23     8    61 1   
    24     9    11 ar  
    25     9    33 ar  
    26     9    62 1   
    27    10    12 ar  
    28    10    33 ar  
    29    10    64 1   
    30    11    34 ar  
    31    11    63 1   
    32    12    34 ar  
    33    12    65 1   
    34    13    35 ar  
    35    13    90 1   
    36    14    25 1   
    37    14    26 2   
    38    14    91 1   
    39    15    29 ar  
    40    15    30 ar  
    41    15    44 1   
    42    16    25 2   
    43    16    41 1   
    44    16    68 1   
    45    17    27 2   
    46    17    42 1   
    47    17    69 1   
    48    18    38 1   
    49    18    50 1   
    50    18    51 1   
    51    19    44 1   
    52    19    46 1   
    53    19    71 1   
    54    19    72 1   
    55    20    22 1   
    56    20    39 1   
    57    20    74 1   
    58    20    75 1   
    59    21    23 1   
    60    21    39 1   
    61    21    78 1   
    62    21    79 1   
    63    22    40 1   
    64    22    76 1   
    65    22    77 1   
    66    23    40 1   
    67    23    80 1   
    68    23    81 1   
    69    24    46 1   
    70    24    82 1   
    71    24    83 1   
    72    24    87 1   
    73    26    41 1   
    74    27    43 1   
    75    28    44 1   
    76    28    45 1   
    77    29    89 1   
    78    30    35 ar  
    79    30    67 1   
    80    31    87 1   
    81    32    39 1   
    82    33    40 1   
    83    34    42 1   
    84    35    66 1   
    85    36    42 1   
    86    36    43 1   
    87    36    86 2   
    88    37    38 1   
    89    37    55 1   
    90    38    43 1   
    91    38    70 1   
    92    41    88 1   
    93    44    88 1   
    94    45    46 1   
    95    45    84 1   
    96    45    85 1   
    97    46    73 1   
    98    88    92 1   
    99    88    93 1   
@<TRIPOS>SUBSTRUCTURE
     1 X2N         1 TEMP              0 ****  ****    0 ROOT
