@<TRIPOS>MOLECULE
X2O
   48    49     1     0     0
SMALL
bcc


@<TRIPOS>ATOM
      1 CAL          2.1170    -2.1830    -0.0080 ca         1 X2O      -0.116000
      2 CAH          2.2090    -3.5690     0.0160 ca         1 X2O      -0.137000
      3 CAF          1.0640    -4.3460     0.1020 ca         1 X2O      -0.137000
      4 CAI         -0.1720    -3.7180     0.1740 ca         1 X2O      -0.137000
      5 CAM         -0.2570    -2.3330     0.1510 ca         1 X2O      -0.116000
      6 CAT          0.8820    -1.5370     0.0480 ca         1 X2O      -0.051300
      7 CAX          0.7850    -0.0110     0.0950 c3         1 X2O       0.172700
      8 SAR         -0.5410     0.6190    -1.0670 ss         1 X2O      -0.418200
      9 CB          -2.1880     0.3520    -0.3340 c3         1 X2O       0.014700
     10 CA          -3.1430     1.4570    -0.8270 c3         1 X2O       0.024500
     11 C           -4.5570     1.0860    -0.3080 c          1 X2O       0.934600
     12 OXT         -5.1240     0.1470    -0.8990 o          1 X2O      -0.826300
     13 O           -4.9840     1.7240     0.6720 o          1 X2O      -0.826300
     14 N           -2.7760     2.8020    -0.4370 n8         1 X2O      -0.875800
     15 CAW          0.4620     0.4170     1.5560 c3         1 X2O      -0.049700
     16 CAB          0.1040     1.8990     1.7230 c3         1 X2O      -0.090100
     17 CAP          1.5110    -0.0390     2.5890 c3         1 X2O      -0.074400
     18 CAA          0.8970    -0.2430     3.9700 c3         1 X2O      -0.091100
     19 CAU          2.0180     0.6180    -0.5520 ca         1 X2O      -0.051300
     20 CAN          2.3160     0.2730    -1.8760 ca         1 X2O      -0.116000
     21 CAJ          3.4090     0.8090    -2.5360 ca         1 X2O      -0.137000
     22 CAG          4.2470     1.7070    -1.8850 ca         1 X2O      -0.137000
     23 CAK          3.9720     2.0520    -0.5730 ca         1 X2O      -0.137000
     24 CAO          2.8690     1.5150     0.0840 ca         1 X2O      -0.116000
     25 HAL          3.0300    -1.6070    -0.0660 ha         1 X2O       0.141500
     26 HAH          3.1830    -4.0380    -0.0320 ha         1 X2O       0.123500
     27 HAF          1.1320    -5.4260     0.1160 ha         1 X2O       0.119500
     28 HAI         -1.0770    -4.3060     0.2470 ha         1 X2O       0.123500
     29 HAM         -1.2370    -1.8840     0.2130 ha         1 X2O       0.141500
     30 HAW         -0.4390    -0.1520     1.8130 hc         1 X2O       0.056700
     31 HB1C        -2.5770    -0.6200    -0.6370 h1         1 X2O       0.063700
     32 HB2C        -2.1250     0.3730     0.7550 h1         1 X2O       0.063700
     33 HA          -3.1670     1.4050    -1.9210 h1         1 X2O       0.060700
     34 HN1         -2.9710     2.9160     0.5490 hn         1 X2O       0.330300
     35 HN2         -1.7780     2.9310    -0.5590 hn         1 X2O       0.330300
     36 HAB1         0.7130     2.5610     1.1110 hc         1 X2O       0.041700
     37 HAB2        -0.9330     2.0970     1.4610 hc         1 X2O       0.041700
     38 HAB3         0.2330     2.2050     2.7620 hc         1 X2O       0.041700
     39 HAP1         1.9730    -0.9770     2.2780 hc         1 X2O       0.038700
     40 HAP2         2.3230     0.6860     2.6680 hc         1 X2O       0.038700
     41 HAA1         1.6560    -0.5500     4.6900 hc         1 X2O       0.029700
     42 HAA2         0.4350     0.6690     4.3520 hc         1 X2O       0.029700
     43 HAA3         0.1290    -1.0170     3.9450 hc         1 X2O       0.029700
     44 HAN          1.6870    -0.4360    -2.4010 ha         1 X2O       0.141500
     45 HAO          2.6990     1.8150     1.1050 ha         1 X2O       0.141500
     46 HAJ          3.6080     0.5200    -3.5590 ha         1 X2O       0.123500
     47 HAG          5.1030     2.1270    -2.3960 ha         1 X2O       0.119500
     48 HAK          4.6150     2.7450    -0.0450 ha         1 X2O       0.123500
@<TRIPOS>BOND
     1     1     2 ar  
     2     1     6 ar  
     3     1    25 1   
     4     2     3 ar  
     5     2    26 1   
     6     3     4 ar  
     7     3    27 1   
     8     4     5 ar  
     9     4    28 1   
    10     5     6 ar  
    11     5    29 1   
    12     6     7 1   
    13     7     8 1   
    14     7    15 1   
    15     7    19 1   
    16     8     9 1   
    17     9    10 1   
    18     9    31 1   
    19     9    32 1   
    20    10    11 1   
    21    10    14 1   
    22    10    33 1   
    23    11    12 1   
    24    11    13 1   
    25    14    34 1   
    26    14    35 1   
    27    15    16 1   
    28    15    17 1   
    29    15    30 1   
    30    16    36 1   
    31    16    37 1   
    32    16    38 1   
    33    17    18 1   
    34    17    39 1   
    35    17    40 1   
    36    18    41 1   
    37    18    42 1   
    38    18    43 1   
    39    19    20 ar  
    40    19    24 ar  
    41    20    21 ar  
    42    20    44 1   
    43    21    22 ar  
    44    21    46 1   
    45    22    23 ar  
    46    22    47 1   
    47    23    24 ar  
    48    23    48 1   
    49    24    45 1   
@<TRIPOS>SUBSTRUCTURE
     1 X2O         1 TEMP              0 ****  ****    0 ROOT
