@<TRIPOS>MOLECULE
X2O
   48    49     1     0     0
SMALL
No Charge or Current Charge


@<TRIPOS>ATOM
      1 CAL          2.0410    -2.1250     0.1460 ca         1 X2O      -0.098000
      2 CAH          2.1300    -3.5180    -0.0150 ca         1 X2O      -0.119000
      3 CAF          0.9980    -4.2570    -0.3820 ca         1 X2O      -0.119000
      4 CAI         -0.2210    -3.5990    -0.5910 ca         1 X2O      -0.119000
      5 CAM         -0.3120    -2.2050    -0.4300 ca         1 X2O      -0.098000
      6 CAT          0.8170    -1.4360    -0.0520 ca         1 X2O      -0.051300
      7 CAX          0.7660     0.1130     0.1360 c3         1 X2O       0.220600
      8 SAR         -0.6090     0.8610    -0.9320 ss         1 X2O      -0.514000
      9 CB          -2.1700     0.7350     0.0960 c3         1 X2O       0.062600
     10 CA          -3.4430     0.9120    -0.7740 c3         1 X2O       0.024500
     11 C           -4.7320     0.7310     0.1220 c          1 X2O       0.724000
     12 OXT         -5.4890    -0.1970    -0.1310 o          1 X2O      -0.721000
     13 O           -4.9540     1.5550     1.0010 o          1 X2O      -0.721000
     14 N           -3.3530     2.1810    -1.5920 n8         1 X2O      -0.986200
     15 CAW          0.5040     0.4710     1.6860 c3         1 X2O      -0.049700
     16 CAB          0.3160     1.9980     2.0530 c3         1 X2O      -0.090100
     17 CAP          1.4530    -0.2530     2.7000 c3         1 X2O      -0.074400
     18 CAA          1.1430     0.0120     4.1910 c3         1 X2O      -0.091100
     19 CAU          2.0700     0.6970    -0.4950 ca         1 X2O      -0.051300
     20 CAN          2.3410     0.4030    -1.8550 ca         1 X2O      -0.098000
     21 CAJ          3.5040     0.8710    -2.4910 ca         1 X2O      -0.119000
     22 CAG          4.4270     1.6500    -1.7810 ca         1 X2O      -0.119000
     23 CAK          4.1840     1.9540    -0.4350 ca         1 X2O      -0.119000
     24 CAO          3.0220     1.4830     0.2030 ca         1 X2O      -0.098000
     25 HAL          2.9370    -1.5820     0.4370 ha         1 X2O       0.123500
     26 HAH          3.0800    -4.0240     0.1470 ha         1 X2O       0.105500
     27 HAF          1.0660    -5.3360    -0.5070 ha         1 X2O       0.101500
     28 HAI         -1.1010    -4.1680    -0.8810 ha         1 X2O       0.105500
     29 HAM         -1.2740    -1.7430    -0.6150 ha         1 X2O       0.123500
     30 HAW         -0.4630     0.0150     1.9150 hc         1 X2O       0.056700
     31 HB1C        -2.2230    -0.2390     0.5950 h1         1 X2O       0.063700
     32 HB2C        -2.1550     1.5090     0.8740 h1         1 X2O       0.063700
     33 HA          -3.4540     0.0770    -1.4880 h1         1 X2O       0.060700
     34 HN1         -3.4310     2.9850    -0.9580 hn         1 X2O       0.385500
     35 HN2         -2.3870     2.2430    -1.9380 hn         1 X2O       0.385500
     36 HAB1         1.2470     2.4630     2.3920 hc         1 X2O       0.041700
     37 HAB2        -0.0550     2.5810     1.2040 hc         1 X2O       0.041700
     38 HAB3        -0.4100     2.1040     2.8680 hc         1 X2O       0.041700
     39 HAP1         1.3670    -1.3360     2.5600 hc         1 X2O       0.038700
     40 HAP2         2.5010    -0.0020     2.5090 hc         1 X2O       0.038700
     41 HAA1         1.7710    -0.6230     4.8270 hc         1 X2O       0.029700
     42 HAA2         1.3440     1.0560     4.4610 hc         1 X2O       0.029700
     43 HAA3         0.0940    -0.2120     4.4160 hc         1 X2O       0.029700
     44 HAN          1.6420    -0.2040    -2.4270 ha         1 X2O       0.123500
     45 HAO          2.8940     1.7400     1.2440 ha         1 X2O       0.123500
     46 HAJ          3.6870     0.6280    -3.5360 ha         1 X2O       0.105500
     47 HAG          5.3270     2.0140    -2.2710 ha         1 X2O       0.101500
     48 HAK          4.9000     2.5550     0.1210 ha         1 X2O       0.105500
@<TRIPOS>BOND
     1     1     2 ar  
     2     1     6 ar  
     3     1    25 1   
     4     2     3 ar  
     5     2    26 1   
     6     3     4 ar  
     7     3    27 1   
     8     4     5 ar  
     9     4    28 1   
    10     5     6 ar  
    11     5    29 1   
    12     6     7 1   
    13     7     8 1   
    14     7    15 1   
    15     7    19 1   
    16     8     9 1   
    17     9    10 1   
    18     9    31 1   
    19     9    32 1   
    20    10    11 1   
    21    10    14 1   
    22    10    33 1   
    23    11    12 1   
    24    11    13 1   
    25    14    34 1   
    26    14    35 1   
    27    15    16 1   
    28    15    17 1   
    29    15    30 1   
    30    16    36 1   
    31    16    37 1   
    32    16    38 1   
    33    17    18 1   
    34    17    39 1   
    35    17    40 1   
    36    18    41 1   
    37    18    42 1   
    38    18    43 1   
    39    19    20 ar  
    40    19    24 ar  
    41    20    21 ar  
    42    20    44 1   
    43    21    22 ar  
    44    21    46 1   
    45    22    23 ar  
    46    22    47 1   
    47    23    24 ar  
    48    23    48 1   
    49    24    45 1   
@<TRIPOS>SUBSTRUCTURE
     1 X2O         1 TEMP              0 ****  ****    0 ROOT
