@<TRIPOS>MOLECULE
X2P
   60    65     1     0     0
SMALL
No Charge or Current Charge


@<TRIPOS>ATOM
      1 N1          -2.4540    -0.8300    -0.1470 n          1 X2P      -0.254000
      2 C4           0.1170     1.8310    -1.1580 c6         1 X2P      -0.045200
      3 C5          -1.8620     0.3720    -0.4700 cc         1 X2P      -0.092600
      4 C6          -1.8270    -2.0640    -0.3770 c          1 X2P       0.512200
      5 C7          -0.4040    -1.9390    -0.8260 cc         1 X2P       0.107900
      6 C8          -3.8580    -0.6030     0.2650 c5         1 X2P       0.333800
      7 C10         -5.3840     1.5490    -0.2160 c3         1 X2P       0.071000
      8 C13         -3.9800    -0.7990     1.8090 c5         1 X2P      -0.098400
      9 C15         -5.1880    -2.6160     0.6260 cx         1 X2P      -0.081700
     10 C17         -6.2650    -1.6430     0.2120 cx         1 X2P      -0.123400
     11 C20          5.1060     2.1250    -0.4090 ca         1 X2P      -0.077000
     12 C21          6.0500     2.1760     0.6320 ca         1 X2P      -0.150000
     13 C22          6.5540     0.9860     1.1810 ca         1 X2P       0.184000
     14 C24          5.1740    -0.3090    -0.3490 ca         1 X2P      -0.056000
     15 F            7.4610     1.0490     2.1830 f          1 X2P      -0.161000
     16 C23          6.1180    -0.2600     0.6920 ca         1 X2P       0.065000
     17 Cl           6.7390    -1.7640     1.3700 cl         1 X2P      -0.167000
     18 C19          4.6640     0.8820    -0.9050 ca         1 X2P      -0.125300
     19 N            2.2540     0.6230    -1.5250 n          1 X2P      -0.408800
     20 C1           1.6860    -0.6720    -1.4860 c          1 X2P       0.589200
     21 O4           2.3430    -1.6500    -1.8180 o          1 X2P      -0.541000
     22 C2           0.2500    -0.7190    -1.0340 cd         1 X2P      -0.184200
     23 O            0.1730    -3.1580    -0.9850 oh         1 X2P      -0.471100
     24 O1          -2.3580    -3.1570    -0.2130 o          1 X2P      -0.571000
     25 C16         -4.8710    -1.5540    -0.4000 cx         1 X2P      -0.163700
     26 C14         -4.4740    -2.2790     1.9590 c5         1 X2P      -0.052400
     27 N2          -4.0930     0.8240    -0.0610 n          1 X2P      -0.411800
     28 C11         -5.7740     2.4220     1.0040 c3         1 X2P       0.155300
     29 O3          -4.7900     3.4470     1.1990 oh         1 X2P      -0.652000
     30 C12         -7.1490     3.0920     0.8250 c3         1 X2P      -0.129100
     31 C9          -2.8890     1.4420    -0.4150 c          1 X2P       0.592200
     32 O2          -2.7810     2.6370    -0.6540 o          1 X2P      -0.546000
     33 C3          -0.5330     0.4970    -0.8550 cd         1 X2P      -0.015200
     34 C            1.6130     1.7620    -0.8430 c6         1 X2P       0.106000
     35 H1          -0.0320     2.0990    -2.2120 hc         1 X2P       0.080200
     36 H2          -0.3090     2.6430    -0.5570 hc         1 X2P       0.080200
     37 H3          -5.3240     2.1910    -1.1050 h1         1 X2P       0.065200
     38 H4          -6.1910     0.8390    -0.4180 h1         1 X2P       0.065200
     39 H5          -3.0410    -0.6100     2.3410 hc         1 X2P       0.066200
     40 H6          -4.7200    -0.1190     2.2410 hc         1 X2P       0.066200
     41 H7          -5.2830    -3.6510     0.3030 hc         1 X2P       0.103700
     42 H8          -7.0640    -2.0210    -0.4210 hc         1 X2P       0.075200
     43 H9          -6.5900    -0.9040     0.9400 hc         1 X2P       0.075200
     44 H10          4.7170     3.0520    -0.8270 ha         1 X2P       0.117000
     45 H11          6.3900     3.1350     1.0150 ha         1 X2P       0.135000
     46 H12          4.8390    -1.2740    -0.7220 ha         1 X2P       0.152000
     47 H13          3.6650     1.7610    -2.5960 h1         1 X2P       0.069700
     48 H14          3.9020     0.0260    -2.7290 h1         1 X2P       0.069700
     49 H15         -0.5290    -3.8140    -0.7650 ho         1 X2P       0.497000
     50 H16         -4.7500    -1.8390    -1.4420 hc         1 X2P       0.106700
     51 H17         -3.6270    -2.9550     2.1260 hc         1 X2P       0.064200
     52 H18         -5.1360    -2.4000     2.8240 hc         1 X2P       0.064200
     53 H19         -5.8280     1.7780     1.8910 h1         1 X2P       0.068700
     54 H20         -4.0590     3.2590     0.5620 ho         1 X2P       0.456000
     55 H21         -7.9310     2.3340     0.6930 hc         1 X2P       0.045700
     56 H22         -7.4030     3.6920     1.7060 hc         1 X2P       0.045700
     57 H23         -7.1540     3.7480    -0.0540 hc         1 X2P       0.045700
     58 H24          2.0930     2.7040    -1.1430 h1         1 X2P       0.050200
     59 H25          1.7550     1.6490     0.2420 h1         1 X2P       0.050200
     60 C18          3.6330     0.8240    -2.0250 c3         1 X2P       0.149300
@<TRIPOS>BOND
     1     1     3 1   
     2     1     4 1   
     3     1     6 1   
     4     2    33 1   
     5     2    34 1   
     6     2    35 1   
     7     2    36 1   
     8     3    31 1   
     9     3    33 2   
    10     4     5 1   
    11     4    24 2   
    12     5    22 2   
    13     5    23 1   
    14     6     8 1   
    15     6    25 1   
    16     6    27 1   
    17     7    27 1   
    18     7    28 1   
    19     7    37 1   
    20     7    38 1   
    21     8    26 1   
    22     8    39 1   
    23     8    40 1   
    24     9    10 1   
    25     9    25 1   
    26     9    26 1   
    27     9    41 1   
    28    10    25 1   
    29    10    42 1   
    30    10    43 1   
    31    11    12 ar  
    32    11    18 ar  
    33    11    44 1   
    34    12    13 ar  
    35    12    45 1   
    36    13    15 1   
    37    13    16 ar  
    38    14    16 ar  
    39    14    18 ar  
    40    14    46 1   
    41    16    17 1   
    42    18    60 1   
    43    19    20 1   
    44    19    34 1   
    45    19    60 1   
    46    20    21 2   
    47    20    22 1   
    48    22    33 1   
    49    23    49 1   
    50    25    50 1   
    51    26    51 1   
    52    26    52 1   
    53    27    31 1   
    54    28    29 1   
    55    28    30 1   
    56    28    53 1   
    57    29    54 1   
    58    30    55 1   
    59    30    56 1   
    60    30    57 1   
    61    31    32 2   
    62    34    58 1   
    63    34    59 1   
    64    47    60 1   
    65    48    60 1   
@<TRIPOS>SUBSTRUCTURE
     1 X2P         1 TEMP              0 ****  ****    0 ROOT
