@<TRIPOS>MOLECULE
X2P
   60    65     1     0     0
SMALL
abcg2


@<TRIPOS>ATOM
      1 N1          -2.4070    -0.7600    -0.2350 n          1 X2P      -0.254000
      2 C4           0.0780     1.8080    -1.4940 c6         1 X2P      -0.045200
      3 C5          -1.8540     0.4240    -0.6610 cc         1 X2P      -0.092600
      4 C6          -1.7180    -1.9210    -0.2130 c          1 X2P       0.512200
      5 C7          -0.3280    -1.8380    -0.6850 cc         1 X2P       0.107900
      6 C8          -3.8100    -0.5830     0.2180 c5         1 X2P       0.333800
      7 C10         -5.2800     1.5120    -0.0810 c3         1 X2P       0.071000
      8 C13         -3.9830    -0.8700     1.7280 c5         1 X2P      -0.098400
      9 C15         -5.0900    -2.6490     0.5130 cx         1 X2P      -0.081700
     10 C17         -6.1430    -1.7050     0.0560 cx         1 X2P      -0.123400
     11 C20          5.0230     2.0650    -0.4700 ca         1 X2P      -0.077000
     12 C21          5.8490     2.1550     0.6410 ca         1 X2P      -0.150000
     13 C22          6.1640     1.0060     1.3350 ca         1 X2P       0.184000
     14 C24          4.8480    -0.3090    -0.1760 ca         1 X2P      -0.056000
     15 F            6.9570     1.0700     2.4070 f          1 X2P      -0.161000
     16 C23          5.6710    -0.2260     0.9330 ca         1 X2P       0.065000
     17 CL           6.0970    -1.6380     1.8240 cl         1 X2P      -0.167000
     18 C19          4.5130     0.8410    -0.8880 ca         1 X2P      -0.125300
     19 N            2.1960     0.6100    -1.6670 n          1 X2P      -0.408800
     20 C1           1.6320    -0.6160    -1.6050 c          1 X2P       0.589200
     21 O4           2.2150    -1.6320    -1.9580 o          1 X2P      -0.541000
     22 C2           0.2290    -0.6600    -1.0980 cd         1 X2P      -0.184200
     23 O            0.3040    -2.9970    -0.6450 oh         1 X2P      -0.471100
     24 O1          -2.1520    -3.0090     0.1570 o          1 X2P      -0.571000
     25 C16         -4.7340    -1.5670    -0.4620 cx         1 X2P      -0.163700
     26 C14         -4.4750    -2.3180     1.8590 c5         1 X2P      -0.052400
     27 N2          -4.0120     0.8170    -0.1390 n          1 X2P      -0.411800
     28 C11         -5.5360     2.2860     1.2180 c3         1 X2P       0.155300
     29 O3          -4.4240     3.0570     1.6050 oh         1 X2P      -0.652000
     30 C12         -6.7990     3.1210     1.0650 c3         1 X2P      -0.129100
     31 C9          -2.9130     1.4380    -0.6140 c          1 X2P       0.592200
     32 O2          -2.8390     2.6000    -0.9770 o          1 X2P      -0.546000
     33 C3          -0.5700     0.5270    -1.0680 cd         1 X2P      -0.015200
     34 C            1.5410     1.7780    -1.1020 c6         1 X2P       0.106000
     35 H1          -0.0060     1.9310    -2.5780 hc         1 X2P       0.080200
     36 H2          -0.4020     2.6670    -1.0350 hc         1 X2P       0.080200
     37 H3          -5.3080     2.2070    -0.9230 h1         1 X2P       0.065200
     38 H4          -6.0870     0.8020    -0.2530 h1         1 X2P       0.065200
     39 H5          -3.0650    -0.6660     2.2790 hc         1 X2P       0.066200
     40 H6          -4.7330    -0.1840     2.1190 hc         1 X2P       0.066200
     41 H7          -5.1270    -3.6820     0.1920 hc         1 X2P       0.103700
     42 H8          -6.8680    -2.0540    -0.6680 hc         1 X2P       0.075200
     43 H9          -6.5510    -1.0000     0.7720 hc         1 X2P       0.075200
     44 H10          4.7780     2.9670    -1.0160 ha         1 X2P       0.117000
     45 H11          6.2460     3.1070     0.9670 ha         1 X2P       0.135000
     46 H12          4.4710    -1.2740    -0.4870 ha         1 X2P       0.152000
     47 H13          3.6630     1.6630    -2.6720 h1         1 X2P       0.069700
     48 H14          3.8510    -0.0800    -2.7160 h1         1 X2P       0.069700
     49 H15         -0.3280    -3.6460    -0.2850 ho         1 X2P       0.497000
     50 H16         -4.5580    -1.7730    -1.5110 hc         1 X2P       0.106700
     51 H17         -3.6560    -2.9960     2.0790 hc         1 X2P       0.064200
     52 H18         -5.2020    -2.4100     2.6690 hc         1 X2P       0.064200
     53 H19         -5.6900     1.5770     2.0360 h1         1 X2P       0.068700
     54 H20         -4.1910     3.6490     0.8810 ho         1 X2P       0.456000
     55 H21         -7.6630     2.4920     0.8490 hc         1 X2P       0.045700
     56 H22         -7.0090     3.6710     1.9830 hc         1 X2P       0.045700
     57 H23         -6.6980     3.8410     0.2500 hc         1 X2P       0.045700
     58 H24          2.0390     2.6650    -1.4910 h1         1 X2P       0.050200
     59 H25          1.6500     1.8000    -0.0130 h1         1 X2P       0.050200
     60 C18          3.5830     0.7550    -2.0720 c3         1 X2P       0.149300
@<TRIPOS>BOND
     1     1     3 1   
     2     1     4 1   
     3     1     6 1   
     4     2    33 1   
     5     2    34 1   
     6     2    35 1   
     7     2    36 1   
     8     3    31 1   
     9     3    33 2   
    10     4     5 1   
    11     4    24 2   
    12     5    22 2   
    13     5    23 1   
    14     6     8 1   
    15     6    25 1   
    16     6    27 1   
    17     7    27 1   
    18     7    28 1   
    19     7    37 1   
    20     7    38 1   
    21     8    26 1   
    22     8    39 1   
    23     8    40 1   
    24     9    10 1   
    25     9    25 1   
    26     9    26 1   
    27     9    41 1   
    28    10    25 1   
    29    10    42 1   
    30    10    43 1   
    31    11    12 ar  
    32    11    18 ar  
    33    11    44 1   
    34    12    13 ar  
    35    12    45 1   
    36    13    15 1   
    37    13    16 ar  
    38    14    16 ar  
    39    14    18 ar  
    40    14    46 1   
    41    16    17 1   
    42    18    60 1   
    43    19    20 1   
    44    19    34 1   
    45    19    60 1   
    46    20    21 2   
    47    20    22 1   
    48    22    33 1   
    49    23    49 1   
    50    25    50 1   
    51    26    51 1   
    52    26    52 1   
    53    27    31 1   
    54    28    29 1   
    55    28    30 1   
    56    28    53 1   
    57    29    54 1   
    58    30    55 1   
    59    30    56 1   
    60    30    57 1   
    61    31    32 2   
    62    34    58 1   
    63    34    59 1   
    64    47    60 1   
    65    48    60 1   
@<TRIPOS>SUBSTRUCTURE
     1 X2P         1 TEMP              0 ****  ****    0 ROOT
