@<TRIPOS>MOLECULE
X2R
   48    47     1     0     0
SMALL
abcg2


@<TRIPOS>ATOM
      1 C8          55.5720    75.4070     8.4470 c3         1 X2R      -0.150400
      2 C5          50.2510    79.4200    11.2040 c3         1 X2R      -0.037700
      3 C4          50.4820    79.4080     9.6890 c3         1 X2R      -0.139300
      4 C3          52.3660    78.3990     8.4810 c          1 X2R       0.599100
      5 C2          53.7260    79.5370     6.7310 c3         1 X2R       0.061600
      6 C1          53.7880    78.7020     8.0070 c3         1 X2R       0.042700
      7 C10         55.6830    72.8930     8.5740 c3         1 X2R      -0.052400
      8 C12         55.8490    70.3820     8.3890 c          1 X2R       0.693000
      9 N           54.5370    77.4980     7.7910 ns         1 X2R      -0.496900
     10 C           54.8070    76.6580     8.8070 c          1 X2R       0.601100
     11 O           54.4640    76.9100     9.9550 o          1 X2R      -0.614100
     12 C11         54.9880    71.5700     8.9040 c3         1 X2R       0.014500
     13 C9          54.8610    74.1330     8.8990 c3         1 X2R      -0.066400
     14 N2          54.6350    71.5290    10.3160 n8         1 X2R      -0.990200
     15 O5          56.0390    70.3460     7.1550 o          1 X2R      -0.743000
     16 O6          56.2780    69.5710     9.2320 o          1 X2R      -0.743000
     17 S           52.9070    78.6250     5.3730 sh         1 X2R      -0.371800
     18 S1          49.7690    80.8280     8.7760 s6         1 X2R       1.299600
     19 H1          55.7680    75.3620     7.3720 hc         1 X2R       0.043200
     20 H2          56.5490    75.4700     8.9360 hc         1 X2R       0.043200
     21 H3          49.1690    79.4950    11.3460 hc         1 X2R       0.057700
     22 H4          49.9720    78.5340     9.2790 h2         1 X2R       0.104700
     23 H5          54.7370    79.7920     6.4190 h1         1 X2R       0.067700
     24 H6          53.1880    80.4620     6.9360 h1         1 X2R       0.067700
     25 H7          54.2980    79.3180     8.7550 h1         1 X2R       0.061700
     26 H8          50.4680    78.0290    12.8500 hc         1 X2R       0.027533
     27 H9          50.2270    77.2420    11.2920 hc         1 X2R       0.027533
     28 H10         51.7890    77.9590    11.6880 hc         1 X2R       0.027533
     29 H11         55.9310    72.8940     7.5110 hc         1 X2R       0.031700
     30 H12         56.6390    72.9440     9.1120 hc         1 X2R       0.031700
     31 H13         54.7260    77.2160     6.8410 hn         1 X2R       0.325500
     32 H14         54.0500    71.5500     8.3340 h1         1 X2R       0.043700
     33 H15         50.7060    80.4920    13.0140 hc         1 X2R       0.027533
     34 H16         51.9980    80.5630    11.8290 hc         1 X2R       0.027533
     35 H17         50.5500    81.5470    11.6130 hc         1 X2R       0.027533
     36 H18         54.6620    74.1830     9.9700 hc         1 X2R       0.057200
     37 H19         53.8860    74.0640     8.4040 hc         1 X2R       0.057200
     38 H20         52.4610    80.0890     9.5960 hn         1 X2R       0.311500
     39 H21         54.1950    70.6380    10.5120 hn         1 X2R       0.376000
     40 H22         55.4920    71.5070    10.8580 hn         1 X2R       0.376000
     41 H25         53.5340    79.2530     4.3740 hs         1 X2R       0.157800
     42 N1          51.8670    79.3190     9.3260 ns         1 X2R      -0.459900
     43 C6          50.7090    78.0850    11.7880 c3         1 X2R      -0.084100
     44 O1          49.8660    80.4300     7.3580 o          1 X2R      -0.690867
     45 O2          48.3820    80.9490     9.2630 o          1 X2R      -0.690867
     46 O3          50.6180    81.9930     9.0980 o          1 X2R      -0.690867
     47 O4          51.7510    77.4340     8.0650 o          1 X2R      -0.585100
     48 C7          50.9120    80.5770    11.9460 c3         1 X2R      -0.084100
@<TRIPOS>BOND
     1     1    10 1   
     2     1    13 1   
     3     1    19 1   
     4     1    20 1   
     5     2     3 1   
     6     2    21 1   
     7     2    43 1   
     8     2    48 1   
     9     3    18 1   
    10     3    22 1   
    11     3    42 1   
    12     4     6 1   
    13     4    42 1   
    14     4    47 2   
    15     5     6 1   
    16     5    17 1   
    17     5    23 1   
    18     5    24 1   
    19     6     9 1   
    20     6    25 1   
    21     7    12 1   
    22     7    13 1   
    23     7    29 1   
    24     7    30 1   
    25     8    12 1   
    26     8    15 1   
    27     8    16 1   
    28     9    10 1   
    29     9    31 1   
    30    10    11 2   
    31    12    14 1   
    32    12    32 1   
    33    13    36 1   
    34    13    37 1   
    35    14    39 1   
    36    14    40 1   
    37    17    41 1   
    38    18    44 1   
    39    18    45 1   
    40    18    46 1   
    41    26    43 1   
    42    27    43 1   
    43    28    43 1   
    44    33    48 1   
    45    34    48 1   
    46    35    48 1   
    47    38    42 1   
@<TRIPOS>SUBSTRUCTURE
     1 X2R         1 TEMP              0 ****  ****    0 ROOT
