@<TRIPOS>MOLECULE
X2R
   48    47     1     0     0
SMALL
No Charge or Current Charge


@<TRIPOS>ATOM
      1 C8          55.3870    75.0040     7.7380 c3         1 X2R      -0.150400
      2 C5          49.6410    79.7250    10.7890 c3         1 X2R      -0.037700
      3 C4          50.1490    80.0190     9.3370 c3         1 X2R      -0.139300
      4 C3          52.0540    78.5020     8.5630 c          1 X2R       0.599100
      5 C2          54.2530    79.4190     7.6100 c3         1 X2R       0.061600
      6 C1          53.6020    78.3550     8.5300 c3         1 X2R       0.042700
      7 C10         55.6140    72.5060     8.3550 c3         1 X2R      -0.052400
      8 C12         55.4430    69.9810     8.8280 c          1 X2R       0.693000
      9 N           53.9850    76.9790     8.1320 ns         1 X2R      -0.496900
     10 C           55.2340    76.4260     8.2900 c          1 X2R       0.601100
     11 O           56.1570    77.0360     8.8110 o          1 X2R      -0.614100
     12 C11         55.6280    71.4210     9.4660 c3         1 X2R       0.014500
     13 C9          55.4600    73.9570     8.8760 c3         1 X2R      -0.066400
     14 N2          56.8220    71.5930    10.3730 n8         1 X2R      -0.990200
     15 O5          54.3820    69.4000     9.0070 o          1 X2R      -0.743000
     16 O6          56.4060    69.4550     8.2840 o          1 X2R      -0.743000
     17 S           53.9290    79.1730     5.7990 sh         1 X2R      -0.371800
     18 S1          49.7290    81.7110     8.6950 s6         1 X2R       1.299600
     19 H1          54.5340    74.7570     7.0940 hc         1 X2R       0.043200
     20 H2          56.3160    74.9500     7.1580 hc         1 X2R       0.043200
     21 H3          48.6120    80.0980    10.8680 hc         1 X2R       0.057700
     22 H4          49.5720    79.3920     8.6520 h2         1 X2R       0.104700
     23 H5          55.3410    79.3990     7.7580 h1         1 X2R       0.067700
     24 H6          53.9050    80.4210     7.8930 h1         1 X2R       0.067700
     25 H7          53.9530    78.5250     9.5560 h1         1 X2R       0.061700
     26 H8          49.0900    78.0060    12.0270 hc         1 X2R       0.027533
     27 H9          48.9540    77.7080    10.2840 hc         1 X2R       0.027533
     28 H10         50.5540    77.7470    11.0580 hc         1 X2R       0.027533
     29 H11         54.7770    72.2940     7.6760 hc         1 X2R       0.031700
     30 H12         56.5280    72.4270     7.7540 hc         1 X2R       0.031700
     31 H13         53.2810    76.4010     7.6870 hn         1 X2R       0.325500
     32 H14         54.7370    71.5890    10.0870 h1         1 X2R       0.043700
     33 H15         50.0510    80.1790    12.8900 hc         1 X2R       0.027533
     34 H16         51.5110    80.0980    11.8880 hc         1 X2R       0.027533
     35 H17         50.4360    81.5120    11.7990 hc         1 X2R       0.027533
     36 H18         56.3040    74.2010     9.5330 hc         1 X2R       0.057200
     37 H19         54.5510    74.0250     9.4870 hc         1 X2R       0.057200
     38 H20         52.2860    80.3080     9.5090 hn         1 X2R       0.311500
     39 H21         56.7740    70.8950    11.1250 hn         1 X2R       0.376000
     40 H22         57.6630    71.3150     9.8510 hn         1 X2R       0.376000
     41 H25         54.6470    80.2390     5.3720 hs         1 X2R       0.157800
     42 N1          51.5880    79.6560     9.1660 ns         1 X2R      -0.459900
     43 C6          49.5570    78.2030    11.0550 c3         1 X2R      -0.084100
     44 O1          50.0130    81.6190     7.2540 o          1 X2R      -0.690867
     45 O2          48.3040    81.8890     9.0130 o          1 X2R      -0.690867
     46 O3          50.6320    82.6170     9.4230 o          1 X2R      -0.690867
     47 O4          51.2930    77.6520     8.1110 o          1 X2R      -0.585100
     48 C7          50.4630    80.4220    11.9040 c3         1 X2R      -0.084100
@<TRIPOS>BOND
     1     1    10 1   
     2     1    13 1   
     3     1    19 1   
     4     1    20 1   
     5     2     3 1   
     6     2    21 1   
     7     2    43 1   
     8     2    48 1   
     9     3    18 1   
    10     3    22 1   
    11     3    42 1   
    12     4     6 1   
    13     4    42 1   
    14     4    47 2   
    15     5     6 1   
    16     5    17 1   
    17     5    23 1   
    18     5    24 1   
    19     6     9 1   
    20     6    25 1   
    21     7    12 1   
    22     7    13 1   
    23     7    29 1   
    24     7    30 1   
    25     8    12 1   
    26     8    15 1   
    27     8    16 1   
    28     9    10 1   
    29     9    31 1   
    30    10    11 2   
    31    12    14 1   
    32    12    32 1   
    33    13    36 1   
    34    13    37 1   
    35    14    39 1   
    36    14    40 1   
    37    17    41 1   
    38    18    44 1   
    39    18    45 1   
    40    18    46 1   
    41    26    43 1   
    42    27    43 1   
    43    28    43 1   
    44    33    48 1   
    45    34    48 1   
    46    35    48 1   
    47    38    42 1   
@<TRIPOS>SUBSTRUCTURE
     1 X2R         1 TEMP              0 ****  ****    0 ROOT
