@<TRIPOS>MOLECULE
X2S
   45    47     1     0     0
SMALL
No Charge or Current Charge


@<TRIPOS>ATOM
      1 N          469.6580   -19.8080   127.6270 n1         1 X2S      -0.434000
      2 C          469.0500   -19.1110   126.9150 cg         1 X2S       0.317000
      3 O          468.0420   -17.5370   122.4320 os         1 X2S      -0.225200
      4 C1         468.2920   -18.2630   126.0360 ca         1 X2S       0.018000
      5 C10        465.2260   -16.5400   120.2350 ca         1 X2S      -0.193000
      6 C11        465.9640   -17.2570   121.2050 ca         1 X2S       0.153100
      7 C12        464.0400   -18.7000   121.7750 c3         1 X2S       0.134600
      8 C13        463.7860   -19.9320   122.6690 c3         1 X2S       0.101000
      9 C14        463.2800   -18.9440   124.9060 cc         1 X2S      -0.007400
     10 C15        463.5750   -18.7970   126.2410 cd         1 X2S      -0.366200
     11 C16        464.7370   -19.4430   126.8540 c          1 X2S       0.589200
     12 C17        465.2620   -20.3530   124.6450 c          1 X2S       0.622000
     13 C18        468.5090   -18.3070   124.6450 ca         1 X2S      -0.097000
     14 C2         467.3230   -17.3860   126.5610 ca         1 X2S      -0.094000
     15 C3         466.5760   -16.5690   125.6990 ca         1 X2S       0.140000
     16 C4         466.7990   -16.6060   124.3150 ca         1 X2S      -0.167000
     17 C5         467.7690   -17.4810   123.7830 ca         1 X2S       0.146100
     18 C6         467.2950   -16.8710   121.4850 ca         1 X2S       0.068100
     19 C7         467.8870   -15.8050   120.7870 ca         1 X2S      -0.060000
     20 C8         467.1480   -15.0990   119.8220 ca         1 X2S      -0.136000
     21 C9         465.8150   -15.4580   119.5620 ca         1 X2S       0.151100
     22 N1         464.1140   -19.7270   124.1060 n          1 X2S      -0.310000
     23 N2         465.4760   -20.1670   125.9760 ns         1 X2S      -0.470500
     24 O1         465.0940   -14.7920   118.6090 os         1 X2S      -0.481800
     25 O2         463.9520   -13.3840   120.3860 o          1 X2S      -0.541000
     26 O3         463.5320   -12.9230   117.9130 o          1 X2S      -0.541000
     27 O6         466.0300   -21.0390   123.9900 o          1 X2S      -0.541000
     28 S          464.4410   -13.3250   118.9990 s6         1 X2S       1.587600
     29 Cl         465.3550   -15.4890   126.3570 cl         1 X2S      -0.179000
     30 H1         464.2030   -16.8070   119.9900 ha         1 X2S       0.141000
     31 H2         463.3920   -17.8750   122.0970 h1         1 X2S       0.050700
     32 H3         463.7900   -18.9570   120.7380 h1         1 X2S       0.050700
     33 H4         462.7250   -20.2020   122.5910 h1         1 X2S       0.085200
     34 H5         464.3500   -20.7800   122.2620 h1         1 X2S       0.085200
     35 H6         462.4350   -18.5070   124.3800 h4         1 X2S       0.201000
     36 H7         462.9650   -18.2040   126.9130 ha         1 X2S       0.226000
     37 H8         469.2570   -18.9770   124.2280 ha         1 X2S       0.151000
     38 H9         467.1420   -17.3420   127.6330 ha         1 X2S       0.156000
     39 H10        466.2180   -15.9530   123.6710 ha         1 X2S       0.139000
     40 H11        468.9170   -15.5260   120.9980 ha         1 X2S       0.146000
     41 H12        467.6130   -14.2810   119.2770 ha         1 X2S       0.148000
     42 H13        466.2800   -20.6350   126.3580 hn         1 X2S       0.343500
     43 F1         465.6810   -12.2470   118.9930 f          1 X2S      -0.273900
     44 O4         465.4250   -18.3300   121.8900 os         1 X2S      -0.311100
     45 O5         465.0300   -19.3490   128.0320 o          1 X2S      -0.522000
@<TRIPOS>BOND
     1     1     2 3   
     2     2     4 1   
     3     3    17 1   
     4     3    18 1   
     5     4    13 ar  
     6     4    14 ar  
     7     5     6 ar  
     8     5    21 ar  
     9     5    30 1   
    10     6    18 ar  
    11     6    44 1   
    12     7     8 1   
    13     7    31 1   
    14     7    32 1   
    15     7    44 1   
    16     8    22 1   
    17     8    33 1   
    18     8    34 1   
    19     9    10 2   
    20     9    22 1   
    21     9    35 1   
    22    10    11 1   
    23    10    36 1   
    24    11    23 1   
    25    11    45 2   
    26    12    22 1   
    27    12    23 1   
    28    12    27 2   
    29    13    17 ar  
    30    13    37 1   
    31    14    15 ar  
    32    14    38 1   
    33    15    16 ar  
    34    15    29 1   
    35    16    17 ar  
    36    16    39 1   
    37    18    19 ar  
    38    19    20 ar  
    39    19    40 1   
    40    20    21 ar  
    41    20    41 1   
    42    21    24 1   
    43    23    42 1   
    44    24    28 1   
    45    25    28 2   
    46    26    28 2   
    47    28    43 1   
@<TRIPOS>SUBSTRUCTURE
     1 X2S         1 TEMP              0 ****  ****    0 ROOT
