@<TRIPOS>MOLECULE
X2S
   45    47     1     0     0
SMALL
bcc


@<TRIPOS>ATOM
      1 N          469.9320   -19.7280   127.5080 n1         1 X2S      -0.344800
      2 C          469.2660   -19.0800   126.8280 cg         1 X2S       0.227800
      3 O          467.9330   -17.7460   122.4680 os         1 X2S      -0.225200
      4 C1         468.4340   -18.2760   125.9900 ca         1 X2S       0.018000
      5 C10        465.2330   -16.5640   120.3190 ca         1 X2S      -0.211000
      6 C11        465.9230   -17.3300   121.2500 ca         1 X2S       0.153100
      7 C12        464.0670   -18.7300   121.6980 c3         1 X2S       0.111400
      8 C13        463.7640   -19.9210   122.5790 c3         1 X2S       0.101000
      9 C14        463.2700   -18.8520   124.7080 cc         1 X2S       0.042600
     10 C15        463.4930   -18.5400   125.9950 cd         1 X2S      -0.316200
     11 C16        464.6380   -19.1010   126.6680 c          1 X2S       0.731700
     12 C17        465.2230   -20.2160   124.5270 c          1 X2S       0.831500
     13 C18        468.5420   -18.4030   124.6110 ca         1 X2S      -0.115000
     14 C2         467.5380   -17.3880   126.5820 ca         1 X2S      -0.112000
     15 C3         466.7390   -16.6350   125.7440 ca         1 X2S       0.048400
     16 C4         466.8230   -16.7280   124.3620 ca         1 X2S      -0.185000
     17 C5         467.7380   -17.6100   123.8020 ca         1 X2S       0.146100
     18 C6         467.2320   -16.9630   121.5920 ca         1 X2S       0.068100
     19 C7         467.8400   -15.8690   121.0140 ca         1 X2S      -0.078000
     20 C8         467.1610   -15.1020   120.0740 ca         1 X2S      -0.154000
     21 C9         465.8750   -15.4750   119.7540 ca         1 X2S       0.151100
     22 N1         464.0820   -19.6690   123.9770 n          1 X2S      -0.377000
     23 N2         465.4210   -19.8990   125.8470 ns         1 X2S      -0.604500
     24 O1         465.1920   -14.7610   118.7610 os         1 X2S      -0.481800
     25 O2         463.5690   -13.8170   120.4040 o          1 X2S      -0.611800
     26 O3         463.5850   -13.1480   117.9770 o          1 X2S      -0.611800
     27 O6         465.9850   -20.9330   123.9160 o          1 X2S      -0.616500
     28 S          464.2430   -13.5620   119.1710 s6         1 X2S       1.729200
     29 CL         465.5960   -15.5410   126.4320 cl         1 X2S      -0.087400
     30 H1         464.2270   -16.8120   120.0120 ha         1 X2S       0.159000
     31 H2         463.4410   -17.8740   121.9720 h1         1 X2S       0.050700
     32 H3         463.8410   -18.9940   120.6600 h1         1 X2S       0.050700
     33 H4         462.7020   -20.1540   122.4940 h1         1 X2S       0.085200
     34 H5         464.3160   -20.7970   122.2480 h1         1 X2S       0.085200
     35 H6         462.4090   -18.4660   124.1800 h4         1 X2S       0.151000
     36 H7         462.8190   -17.8910   126.5310 ha         1 X2S       0.176000
     37 H8         469.2480   -19.0940   124.1710 ha         1 X2S       0.169000
     38 H9         467.4670   -17.3000   127.6560 ha         1 X2S       0.174000
     39 H10        466.1930   -16.1010   123.7450 ha         1 X2S       0.157000
     40 H11        468.8540   -15.6150   121.2930 ha         1 X2S       0.164000
     41 H12        467.6400   -14.2560   119.6030 ha         1 X2S       0.166000
     42 H13        466.2330   -20.3270   126.2720 hn         1 X2S       0.343500
     43 F1         465.3500   -12.4750   119.4890 f          1 X2S      -0.273900
     44 O4         465.4360   -18.4100   121.8650 os         1 X2S      -0.287900
     45 O5         464.9380   -18.9330   127.8350 o          1 X2S      -0.597500
@<TRIPOS>BOND
     1     1     2 3   
     2     2     4 1   
     3     3    17 1   
     4     3    18 1   
     5     4    13 ar  
     6     4    14 ar  
     7     5     6 ar  
     8     5    21 ar  
     9     5    30 1   
    10     6    18 ar  
    11     6    44 1   
    12     7     8 1   
    13     7    31 1   
    14     7    32 1   
    15     7    44 1   
    16     8    22 1   
    17     8    33 1   
    18     8    34 1   
    19     9    10 2   
    20     9    22 1   
    21     9    35 1   
    22    10    11 1   
    23    10    36 1   
    24    11    23 1   
    25    11    45 2   
    26    12    22 1   
    27    12    23 1   
    28    12    27 2   
    29    13    17 ar  
    30    13    37 1   
    31    14    15 ar  
    32    14    38 1   
    33    15    16 ar  
    34    15    29 1   
    35    16    17 ar  
    36    16    39 1   
    37    18    19 ar  
    38    19    20 ar  
    39    19    40 1   
    40    20    21 ar  
    41    20    41 1   
    42    21    24 1   
    43    23    42 1   
    44    24    28 1   
    45    25    28 2   
    46    26    28 2   
    47    28    43 1   
@<TRIPOS>SUBSTRUCTURE
     1 X2S         1 TEMP              0 ****  ****    0 ROOT
