@<TRIPOS>MOLECULE
X2U
   82    85     1     0     0
SMALL
No Charge or Current Charge


@<TRIPOS>ATOM
      1 C02         32.6400    14.1050    13.3410 c          1 X2U       0.608600
      2 C04         34.4080    15.1000    11.7930 c6         1 X2U       0.044700
      3 C05         33.6580    15.9660    10.7490 c6         1 X2U      -0.085400
      4 C06         34.3680    15.9410     9.3740 c6         1 X2U      -0.158400
      5 C07         34.7330    14.5300     8.9010 c          1 X2U       0.577000
      6 C09         34.8940    13.7320    11.2310 c          1 X2U       0.571000
      7 C12         33.9080    15.8690    14.1670 c          1 X2U       0.591600
      8 C13         32.9570    15.4270    15.2280 ca         1 X2U      -0.079600
      9 C14         32.7660    15.9080    16.5310 ca         1 X2U      -0.104000
     10 C15         31.7810    15.2850    17.3250 ca         1 X2U      -0.046000
     11 C16         31.0150    14.2110    16.8080 ca         1 X2U      -0.179000
     12 C17         31.2190    13.7450    15.4920 ca         1 X2U       0.411000
     13 C19         29.1060    12.3160    15.3040 c3         1 X2U       0.224800
     14 C20         28.1180    13.4350    14.9260 c3         1 X2U      -0.116400
     15 C21         26.6620    13.0650    15.2540 c3         1 X2U       0.162600
     16 C23         24.4320    14.0730    15.1860 c3         1 X2U       0.159600
     17 C24         23.7640    13.0020    14.2910 c3         1 X2U      -0.111400
     18 C25         22.2260    12.9770    14.4350 c3         1 X2U      -0.079400
     19 C26         21.5560    11.9110    13.5470 c3         1 X2U       0.160600
     20 C28         19.3120    11.1370    12.9490 c3         1 X2U       0.163600
     21 C29         19.4990     9.6620    13.3750 c3         1 X2U      -0.133400
     22 C30         18.5010     8.7200    12.6740 c3         1 X2U       0.107000
     23 C32         18.2430     6.7620    14.2440 c          1 X2U       0.601700
     24 C33         18.5810     5.3010    14.4820 ca         1 X2U      -0.095600
     25 C34         19.3310     4.5350    13.5540 ca         1 X2U      -0.096000
     26 C35         19.6250     3.1840    13.8080 ca         1 X2U      -0.017500
     27 C36         19.1780     2.5700    14.9950 ca         1 X2U      -0.256500
     28 C41         18.4310     3.3190    15.9240 ca         1 X2U      -0.017500
     29 C42         18.1380     4.6700    15.6680 ca         1 X2U      -0.096000
     30 C44         32.2020    14.3720    14.7310 ca         1 X2U      -0.264600
     31 N03         33.6510    15.0350    13.0760 n          1 X2U      -0.388400
     32 N08         34.9530    13.5940     9.8700 ns         1 X2U      -0.479500
     33 N18         30.4840    12.6950    14.9530 nu         1 X2U      -0.956200
     34 N31         18.6980     7.3220    13.0670 ns         1 X2U      -0.502900
     35 N38         18.2920     0.0560    14.6550 n8         1 X2U      -1.026100
     36 O01         32.1930    13.2640    12.5740 o          1 X2U      -0.524000
     37 O10         35.2590    12.8190    11.9560 o          1 X2U      -0.501000
     38 O11         34.7830    14.2330     7.7200 o          1 X2U      -0.515000
     39 O22         25.8350    14.1780    14.8640 os         1 X2U      -0.462000
     40 O27         20.1350    11.9910    13.7710 os         1 X2U      -0.462000
     41 O39         19.4330     0.5350    16.7420 o          1 X2U      -0.550000
     42 O40         20.6910     0.3930    14.5170 o          1 X2U      -0.550000
     43 O43         17.5970     7.4200    15.0490 o          1 X2U      -0.594100
     44 O45         34.7390    16.7640    14.2290 o          1 X2U      -0.492000
     45 S37         19.5550     0.8420    15.3190 sy         1 X2U       1.158600
     46 H041        35.3570    15.6190    11.9950 h1         1 X2U       0.100700
     47 H052        33.5610    17.0000    11.1100 hc         1 X2U       0.071700
     48 H051        32.6350    15.5820    10.6270 hc         1 X2U       0.071700
     49 H062        35.3250    16.4660     9.5000 hc         1 X2U       0.082200
     50 H061        33.8150    16.4710     8.5870 hc         1 X2U       0.082200
     51 H141        33.3600    16.7340    16.9180 ha         1 X2U       0.140000
     52 H151        31.6090    15.6320    18.3420 ha         1 X2U       0.120000
     53 H161        30.2660    13.7440    17.4390 ha         1 X2U       0.121000
     54 H192        28.8270    11.3990    14.7660 h1         1 X2U       0.055200
     55 H191        29.0280    12.1000    16.3790 h1         1 X2U       0.055200
     56 H201        28.3800    14.3540    15.4630 hc         1 X2U       0.062700
     57 H202        28.2020    13.6450    13.8540 hc         1 X2U       0.062700
     58 H212        26.3890    12.1550    14.7050 h1         1 X2U       0.022700
     59 H211        26.5660    12.8680    16.3300 h1         1 X2U       0.022700
     60 H232        23.9430    15.0390    15.0060 h1         1 X2U       0.048200
     61 H231        24.2880    13.8200    16.2460 h1         1 X2U       0.048200
     62 H241        24.1540    12.0090    14.5440 hc         1 X2U       0.046700
     63 H242        24.0230    13.1980    13.2430 hc         1 X2U       0.046700
     64 H252        21.8210    13.9630    14.1760 hc         1 X2U       0.055700
     65 H251        21.9640    12.7840    15.4830 hc         1 X2U       0.055700
     66 H262        21.9460    10.9220    13.8170 h1         1 X2U       0.021700
     67 H261        21.7950    12.1080    12.4940 h1         1 X2U       0.021700
     68 H282        19.5580    11.2560    11.8850 h1         1 X2U       0.045200
     69 H281        18.2570    11.4100    13.0800 h1         1 X2U       0.045200
     70 H292        19.3710     9.5830    14.4610 hc         1 X2U       0.058200
     71 H291        20.5160     9.3300    13.1370 hc         1 X2U       0.058200
     72 H301        18.6280     8.7960    11.5860 h1         1 X2U       0.055200
     73 H302        17.4730     9.0210    12.9150 h1         1 X2U       0.055200
     74 H341        19.6950     4.9700    12.6270 ha         1 X2U       0.129500
     75 H351        20.2010     2.6170    13.0770 ha         1 X2U       0.139500
     76 H411        18.0740     2.8610    16.8450 ha         1 X2U       0.139500
     77 H421        17.5600     5.2280    16.4010 ha         1 X2U       0.129500
     78 H081        35.2270    12.6810     9.5380 hn         1 X2U       0.332500
     79 H181        30.7890    12.4410    14.0080 hn         1 X2U       0.516000
     80 H311        19.2190     6.7190    12.4450 hn         1 X2U       0.317500
     81 H1          18.7900    -0.6120    14.0710 hn         1 X2U       0.482000
     82 H381        18.0120    -0.5200    15.4440 hn         1 X2U       0.482000
@<TRIPOS>BOND
     1     1    30 1   
     2     1    31 1   
     3     1    36 2   
     4     2     3 1   
     5     2     6 1   
     6     2    31 1   
     7     2    46 1   
     8     3     4 1   
     9     3    47 1   
    10     3    48 1   
    11     4     5 1   
    12     4    49 1   
    13     4    50 1   
    14     5    32 1   
    15     5    38 2   
    16     6    32 1   
    17     6    37 2   
    18     7     8 1   
    19     7    31 1   
    20     7    44 2   
    21     8     9 ar  
    22     8    30 ar  
    23     9    10 ar  
    24     9    51 1   
    25    10    11 ar  
    26    10    52 1   
    27    11    12 ar  
    28    11    53 1   
    29    12    30 ar  
    30    12    33 1   
    31    13    14 1   
    32    13    33 1   
    33    13    54 1   
    34    13    55 1   
    35    14    15 1   
    36    14    56 1   
    37    14    57 1   
    38    15    39 1   
    39    15    58 1   
    40    15    59 1   
    41    16    17 1   
    42    16    39 1   
    43    16    60 1   
    44    16    61 1   
    45    17    18 1   
    46    17    62 1   
    47    17    63 1   
    48    18    19 1   
    49    18    64 1   
    50    18    65 1   
    51    19    40 1   
    52    19    66 1   
    53    19    67 1   
    54    20    21 1   
    55    20    40 1   
    56    20    68 1   
    57    20    69 1   
    58    21    22 1   
    59    21    70 1   
    60    21    71 1   
    61    22    34 1   
    62    22    72 1   
    63    22    73 1   
    64    23    24 1   
    65    23    34 1   
    66    23    43 2   
    67    24    25 ar  
    68    24    29 ar  
    69    25    26 ar  
    70    25    74 1   
    71    26    27 ar  
    72    26    75 1   
    73    27    28 ar  
    74    27    45 1   
    75    28    29 ar  
    76    28    76 1   
    77    29    77 1   
    78    32    78 1   
    79    33    79 1   
    80    34    80 1   
    81    35    45 1   
    82    35    81 1   
    83    35    82 1   
    84    41    45 2   
    85    42    45 2   
@<TRIPOS>SUBSTRUCTURE
     1 X2U         1 TEMP              0 ****  ****    0 ROOT
