@<TRIPOS>MOLECULE
X2U
   82    85     1     0     0
SMALL
abcg2


@<TRIPOS>ATOM
      1 C02         33.0870    14.8800    12.8900 c          1 X2U       0.608600
      2 C04         35.0580    16.2170    12.0670 c6         1 X2U       0.044700
      3 C05         34.3500    17.3370    11.3050 c6         1 X2U      -0.085400
      4 C06         35.2560    17.8620    10.1980 c6         1 X2U      -0.158400
      5 C07         35.7640    16.7730     9.2910 c          1 X2U       0.577000
      6 C09         35.5860    15.1200    11.1450 c          1 X2U       0.571000
      7 C12         34.5230    15.7720    14.4740 c          1 X2U       0.591600
      8 C13         33.4310    15.0460    15.1790 ca         1 X2U      -0.079600
      9 C14         33.2070    14.8850    16.5260 ca         1 X2U      -0.104000
     10 C15         32.0620    14.1510    16.8810 ca         1 X2U      -0.046000
     11 C16         31.2030    13.6130    15.9390 ca         1 X2U      -0.179000
     12 C17         31.4390    13.7660    14.5460 ca         1 X2U       0.411000
     13 C19         29.3610    12.5980    13.8350 c3         1 X2U       0.224800
     14 C20         28.2330    13.6120    14.0390 c3         1 X2U      -0.116400
     15 C21         26.9120    12.9290    14.3350 c3         1 X2U       0.162600
     16 C23         24.6340    13.4440    14.8560 c3         1 X2U       0.159600
     17 C24         23.9340    12.4920    13.8910 c3         1 X2U      -0.111400
     18 C25         22.4860    12.2440    14.3100 c3         1 X2U      -0.079400
     19 C26         21.7920    11.2360    13.4150 c3         1 X2U       0.160600
     20 C28         19.6470    10.2640    13.0000 c3         1 X2U       0.163600
     21 C29         19.6550     8.8630    13.5980 c3         1 X2U      -0.133400
     22 C30         18.7770     7.9140    12.7820 c3         1 X2U       0.107000
     23 C32         17.6900     6.3480    14.3290 c          1 X2U       0.601700
     24 C33         17.6660     4.9540    14.8890 ca         1 X2U      -0.095600
     25 C34         18.8120     4.1590    14.9860 ca         1 X2U      -0.096000
     26 C35         18.7380     2.8850    15.5290 ca         1 X2U      -0.017500
     27 C36         17.5080     2.4070    15.9730 ca         1 X2U      -0.256500
     28 C41         16.3600     3.1860    15.8910 ca         1 X2U      -0.017500
     29 C42         16.4480     4.4620    15.3540 ca         1 X2U      -0.096000
     30 C44         32.5800    14.5110    14.2090 ca         1 X2U      -0.264600
     31 N03         34.2470    15.6430    13.1120 n          1 X2U      -0.388400
     32 N08         35.8900    15.5120     9.8580 ns         1 X2U      -0.479500
     33 N18         30.6510    13.2200    13.5910 nu         1 X2U      -0.956200
     34 N31         18.6270     6.6060    13.4000 ns         1 X2U      -0.502900
     35 N38         17.4740    -0.1820    15.3290 n8         1 X2U      -1.026100
     36 O01         32.6430    14.6170    11.7860 o          1 X2U      -0.524000
     37 O10         35.7700    13.9780    11.5090 o          1 X2U      -0.501000
     38 O11         36.0810    16.9470     8.1310 o          1 X2U      -0.515000
     39 O22         25.8950    13.9210    14.3950 os         1 X2U      -0.462000
     40 O27         20.4110    11.1920    13.7610 os         1 X2U      -0.462000
     41 O39         16.1330     0.6690    17.3360 o          1 X2U      -0.550000
     42 O40         18.6140     0.4960    17.4110 o          1 X2U      -0.550000
     43 O43         16.8700     7.1900    14.7040 o          1 X2U      -0.594100
     44 O45         35.4720    16.3690    14.9370 o          1 X2U      -0.492000
     45 S37         17.4090     0.7750    16.6640 sy         1 X2U       1.158600
     46 H041        35.9410    16.6310    12.5640 h1         1 X2U       0.100700
     47 H052        34.1040    18.1370    12.0020 hc         1 X2U       0.071700
     48 H051        33.4190    16.9590    10.8820 hc         1 X2U       0.071700
     49 H062        36.1400    18.3460    10.6280 hc         1 X2U       0.082200
     50 H061        34.7520    18.6010     9.5780 hc         1 X2U       0.082200
     51 H141        33.8670    15.3020    17.2730 ha         1 X2U       0.140000
     52 H151        31.8340    14.0010    17.9300 ha         1 X2U       0.120000
     53 H161        30.3350    13.0670    16.2760 ha         1 X2U       0.121000
     54 H192        29.1410    11.9660    12.9740 h1         1 X2U       0.055200
     55 H191        29.4400    11.9350    14.6990 h1         1 X2U       0.055200
     56 H201        28.4870    14.2890    14.8580 hc         1 X2U       0.062700
     57 H202        28.1310    14.2170    13.1340 hc         1 X2U       0.062700
     58 H212        26.6860    12.1930    13.5550 h1         1 X2U       0.022700
     59 H211        26.9620    12.3920    15.2930 h1         1 X2U       0.022700
     60 H232        24.0230    14.3380    14.9950 h1         1 X2U       0.048200
     61 H231        24.7580    12.9630    15.8350 h1         1 X2U       0.048200
     62 H241        24.4720    11.5410    13.8440 hc         1 X2U       0.046700
     63 H242        23.9590    12.9270    12.8880 hc         1 X2U       0.046700
     64 H252        21.9290    13.1850    14.2740 hc         1 X2U       0.055700
     65 H251        22.4490    11.8880    15.3440 hc         1 X2U       0.055700
     66 H262        22.2500    10.2460    13.5300 h1         1 X2U       0.021700
     67 H261        21.8920    11.5280    12.3600 h1         1 X2U       0.021700
     68 H282        20.0080    10.2440    11.9640 h1         1 X2U       0.045200
     69 H281        18.6240    10.6490    12.9850 h1         1 X2U       0.045200
     70 H292        19.2750     8.9140    14.6220 hc         1 X2U       0.058200
     71 H291        20.6740     8.4710    13.6420 hc         1 X2U       0.058200
     72 H301        19.2000     7.7620    11.7890 h1         1 X2U       0.055200
     73 H302        17.7810     8.3430    12.6590 h1         1 X2U       0.055200
     74 H341        19.7740     4.5330    14.6630 ha         1 X2U       0.129500
     75 H351        19.6260     2.2750    15.6140 ha         1 X2U       0.139500
     76 H411        15.4160     2.8010    16.2470 ha         1 X2U       0.139500
     77 H421        15.5680     5.0860    15.2900 ha         1 X2U       0.129500
     78 H081        36.2640    14.7880     9.2540 hn         1 X2U       0.332500
     79 H181        30.8660    13.4790    12.6390 hn         1 X2U       0.516000
     80 H311        19.2450     5.8680    13.1050 hn         1 X2U       0.317500
     81 H1          17.9370    -1.0640    15.5290 hn         1 X2U       0.482000
     82 H381        16.5660    -0.3150    14.8930 hn         1 X2U       0.482000
@<TRIPOS>BOND
     1     1    30 1   
     2     1    31 1   
     3     1    36 2   
     4     2     3 1   
     5     2     6 1   
     6     2    31 1   
     7     2    46 1   
     8     3     4 1   
     9     3    47 1   
    10     3    48 1   
    11     4     5 1   
    12     4    49 1   
    13     4    50 1   
    14     5    32 1   
    15     5    38 2   
    16     6    32 1   
    17     6    37 2   
    18     7     8 1   
    19     7    31 1   
    20     7    44 2   
    21     8     9 ar  
    22     8    30 ar  
    23     9    10 ar  
    24     9    51 1   
    25    10    11 ar  
    26    10    52 1   
    27    11    12 ar  
    28    11    53 1   
    29    12    30 ar  
    30    12    33 1   
    31    13    14 1   
    32    13    33 1   
    33    13    54 1   
    34    13    55 1   
    35    14    15 1   
    36    14    56 1   
    37    14    57 1   
    38    15    39 1   
    39    15    58 1   
    40    15    59 1   
    41    16    17 1   
    42    16    39 1   
    43    16    60 1   
    44    16    61 1   
    45    17    18 1   
    46    17    62 1   
    47    17    63 1   
    48    18    19 1   
    49    18    64 1   
    50    18    65 1   
    51    19    40 1   
    52    19    66 1   
    53    19    67 1   
    54    20    21 1   
    55    20    40 1   
    56    20    68 1   
    57    20    69 1   
    58    21    22 1   
    59    21    70 1   
    60    21    71 1   
    61    22    34 1   
    62    22    72 1   
    63    22    73 1   
    64    23    24 1   
    65    23    34 1   
    66    23    43 2   
    67    24    25 ar  
    68    24    29 ar  
    69    25    26 ar  
    70    25    74 1   
    71    26    27 ar  
    72    26    75 1   
    73    27    28 ar  
    74    27    45 1   
    75    28    29 ar  
    76    28    76 1   
    77    29    77 1   
    78    32    78 1   
    79    33    79 1   
    80    34    80 1   
    81    35    45 1   
    82    35    81 1   
    83    35    82 1   
    84    41    45 2   
    85    42    45 2   
@<TRIPOS>SUBSTRUCTURE
     1 X2U         1 TEMP              0 ****  ****    0 ROOT
