@<TRIPOS>MOLECULE
X2V
   51    54     1     0     0
SMALL
bcc


@<TRIPOS>ATOM
      1 C1         472.5290   -16.9240   128.1120 ca         1 X2V      -0.005000
      2 C2         472.7340   -17.8250   127.0400 ca         1 X2V      -0.109000
      3 C4         472.1990   -16.0570   125.4810 ca         1 X2V      -0.032000
      4 C7         472.2680   -16.1010   120.8210 ca         1 X2V      -0.086000
      5 C8         471.5990   -16.0680   119.6030 ca         1 X2V      -0.143000
      6 C10        469.5190   -16.5520   120.7670 ca         1 X2V      -0.194000
      7 C11        470.1950   -16.5820   121.9780 ca         1 X2V       0.146100
      8 C12        468.3170   -17.2860   123.2870 c3         1 X2V       0.117400
      9 C14        468.9280   -19.7230   125.1790 cc         1 X2V       0.050600
     10 C16        471.0820   -20.7170   125.5640 c          1 X2V       0.731700
     11 C17        470.4350   -19.8480   123.3310 c          1 X2V       0.832500
     12 C20        471.5980   -13.8220   126.2980 ca         1 X2V      -0.136000
     13 C21        471.9890   -15.1560   126.5580 ca         1 X2V      -0.026000
     14 C22        472.1660   -15.6200   127.8780 ca         1 X2V      -0.083000
     15 C          472.6990   -17.3800   129.4530 cg         1 X2V       0.232800
     16 C13        468.2520   -18.7830   123.0350 c3         1 X2V       0.065000
     17 C15        469.7850   -20.3010   126.0360 cd         1 X2V      -0.321200
     18 C18        471.6320   -14.2830   123.9280 ca         1 X2V      -0.185000
     19 C19        471.4230   -13.4050   125.0090 ca         1 X2V      -0.095000
     20 C3         472.5720   -17.3940   125.7550 ca         1 X2V      -0.099000
     21 C5         472.0110   -15.5770   124.1610 ca         1 X2V       0.144100
     22 C6         471.5800   -16.3570   121.9880 ca         1 X2V       0.089100
     23 C9         470.2410   -16.2960   119.6120 ca         1 X2V       0.139100
     24 F          470.1100   -14.1820   117.4470 f          1 X2V      -0.275900
     25 N1         469.2100   -19.5020   123.8640 n          1 X2V      -0.374000
     26 N2         471.2910   -20.4490   124.2190 ns         1 X2V      -0.604500
     27 O1         469.5550   -16.3260   118.3890 os         1 X2V      -0.477800
     28 O2         468.2290   -14.2900   118.9500 o          1 X2V      -0.613800
     29 O3         468.1470   -15.3730   116.6800 o          1 X2V      -0.613800
     30 S          468.8330   -15.0140   117.8770 s6         1 X2V       1.726200
     31 H1         473.0120   -18.8490   127.2450 ha         1 X2V       0.158000
     32 H2         473.3370   -15.9400   120.8590 ha         1 X2V       0.162000
     33 H3         472.1350   -15.8840   118.6830 ha         1 X2V       0.163000
     34 H4         468.4570   -16.7420   120.7010 ha         1 X2V       0.154000
     35 H5         467.6170   -16.7650   122.6280 h1         1 X2V       0.070200
     36 H6         468.0160   -17.0630   124.3100 h1         1 X2V       0.070200
     37 H7         467.9460   -19.4030   125.5000 h4         1 X2V       0.152000
     38 H8         471.4410   -13.1440   127.1260 ha         1 X2V       0.139000
     39 H9         472.0120   -14.9370   128.7030 ha         1 X2V       0.144000
     40 H10        467.2480   -19.1350   123.2750 h1         1 X2V       0.080700
     41 H11        468.4350   -19.0330   121.9930 h1         1 X2V       0.080700
     42 H12        469.5130   -20.4610   127.0670 ha         1 X2V       0.177000
     43 H13        471.4910   -13.9210   122.9170 ha         1 X2V       0.144000
     44 H14        471.1250   -12.3860   124.8020 ha         1 X2V       0.136000
     45 H15        472.7370   -18.0850   124.9410 ha         1 X2V       0.151000
     46 H16        472.1830   -20.7320   123.8310 hn         1 X2V       0.343500
     47 O          472.2620   -16.4700   123.1640 os         1 X2V      -0.239200
     48 N          472.8310   -17.7560   130.5340 n1         1 X2V      -0.359800
     49 O4         469.6370   -16.7900   123.1760 os         1 X2V      -0.301900
     50 O6         470.7360   -19.6520   122.1740 o          1 X2V      -0.624500
     51 O5         471.9490   -21.2540   126.2280 o          1 X2V      -0.600500
@<TRIPOS>BOND
     1     1     2 ar  
     2     1    14 ar  
     3     1    15 1   
     4     2    20 ar  
     5     2    31 1   
     6     3    13 ar  
     7     3    20 ar  
     8     3    21 ar  
     9     4     5 ar  
    10     4    22 ar  
    11     4    32 1   
    12     5    23 ar  
    13     5    33 1   
    14     6     7 ar  
    15     6    23 ar  
    16     6    34 1   
    17     7    22 ar  
    18     7    49 1   
    19     8    16 1   
    20     8    35 1   
    21     8    36 1   
    22     8    49 1   
    23     9    17 2   
    24     9    25 1   
    25     9    37 1   
    26    10    17 1   
    27    10    26 1   
    28    10    51 2   
    29    11    25 1   
    30    11    26 1   
    31    11    50 2   
    32    12    13 ar  
    33    12    19 ar  
    34    12    38 1   
    35    13    14 ar  
    36    14    39 1   
    37    15    48 3   
    38    16    25 1   
    39    16    40 1   
    40    16    41 1   
    41    17    42 1   
    42    18    19 ar  
    43    18    21 ar  
    44    18    43 1   
    45    19    44 1   
    46    20    45 1   
    47    21    47 1   
    48    22    47 1   
    49    23    27 1   
    50    24    30 1   
    51    26    46 1   
    52    27    30 1   
    53    28    30 2   
    54    29    30 2   
@<TRIPOS>SUBSTRUCTURE
     1 X2V         1 TEMP              0 ****  ****    0 ROOT
