@<TRIPOS>MOLECULE
X2V
   51    54     1     0     0
SMALL
No Charge or Current Charge


@<TRIPOS>ATOM
      1 C1         472.3800   -17.1030   128.1030 ca         1 X2V      -0.005000
      2 C2         472.7370   -17.8850   126.9890 ca         1 X2V      -0.091000
      3 C4         472.1790   -16.0350   125.4930 ca         1 X2V      -0.032000
      4 C7         472.2320   -16.2400   120.7100 ca         1 X2V      -0.068000
      5 C8         471.4790   -16.3030   119.5250 ca         1 X2V      -0.125000
      6 C10        469.4330   -16.5000   120.8330 ca         1 X2V      -0.176000
      7 C11        470.1820   -16.4440   122.0310 ca         1 X2V       0.146100
      8 C12        468.2520   -17.0680   123.4830 c3         1 X2V       0.140600
      9 C14        469.1570   -19.5150   125.3650 cc         1 X2V       0.000600
     10 C16        471.3280   -20.7180   125.4080 c          1 X2V       0.589200
     11 C17        470.4500   -19.8170   123.3100 c          1 X2V       0.623000
     12 C20        471.3740   -13.9270   126.4330 ca         1 X2V      -0.118000
     13 C21        471.8270   -15.2480   126.6140 ca         1 X2V      -0.026000
     14 C22        471.9260   -15.7840   127.9120 ca         1 X2V      -0.065000
     15 C          472.4790   -17.6470   129.4300 cg         1 X2V       0.322000
     16 C13        468.2660   -18.5940   123.2210 c3         1 X2V       0.065000
     17 C15        470.1320   -20.1880   126.0630 cd         1 X2V      -0.371200
     18 C18        471.6140   -14.1630   124.0250 ca         1 X2V      -0.167000
     19 C19        471.2710   -13.3850   125.1420 ca         1 X2V      -0.077000
     20 C3         472.6330   -17.3560   125.6910 ca         1 X2V      -0.081000
     21 C5         472.0600   -15.4880   124.1950 ca         1 X2V       0.144100
     22 C6         471.5920   -16.2930   121.9600 ca         1 X2V       0.089100
     23 C9         470.0800   -16.4140   119.5910 ca         1 X2V       0.139100
     24 F          470.4340   -14.7500   116.7920 f          1 X2V      -0.275900
     25 N1         469.3080   -19.3280   123.9900 n          1 X2V      -0.307000
     26 N2         471.3670   -20.4710   124.0740 ns         1 X2V      -0.470500
     27 O1         469.3370   -16.4930   118.4440 os         1 X2V      -0.477800
     28 O2         468.8270   -14.0070   118.5500 o          1 X2V      -0.543000
     29 O3         468.0330   -15.4000   116.5660 o          1 X2V      -0.543000
     30 S          469.0460   -15.1060   117.5940 s6         1 X2V       1.584600
     31 H1         473.0950   -18.9030   127.1290 ha         1 X2V       0.140000
     32 H2         473.3150   -16.1520   120.6620 ha         1 X2V       0.144000
     33 H3         471.9830   -16.2710   118.5620 ha         1 X2V       0.145000
     34 H4         468.3540   -16.6040   120.8460 ha         1 X2V       0.136000
     35 H5         467.5050   -16.5720   122.8510 h1         1 X2V       0.070200
     36 H6         467.9540   -16.8990   124.5260 h1         1 X2V       0.070200
     37 H7         468.2420   -19.0950   125.7750 h4         1 X2V       0.202000
     38 H8         471.1030   -13.3170   127.2920 ha         1 X2V       0.121000
     39 H9         471.6520   -15.1760   128.7720 ha         1 X2V       0.126000
     40 H10        467.2830   -19.0010   123.4940 h1         1 X2V       0.080700
     41 H11        468.3840   -18.7730   122.1460 h1         1 X2V       0.080700
     42 H12        470.0700   -20.3640   127.1310 ha         1 X2V       0.227000
     43 H13        471.5320   -13.7400   123.0270 ha         1 X2V       0.126000
     44 H14        470.9230   -12.3630   125.0070 ha         1 X2V       0.118000
     45 H15        472.9120   -17.9780   124.8440 ha         1 X2V       0.133000
     46 H16        472.1720   -20.8240   123.5840 hn         1 X2V       0.343500
     47 O          472.3810   -16.2500   123.0930 os         1 X2V      -0.239200
     48 N          472.5500   -18.0920   130.5080 n1         1 X2V      -0.449000
     49 O4         469.5750   -16.5340   123.2730 os         1 X2V      -0.325100
     50 O6         470.6310   -19.6910   122.1110 o          1 X2V      -0.549000
     51 O5         472.2130   -21.3220   125.9860 o          1 X2V      -0.525000
@<TRIPOS>BOND
     1     1     2 ar  
     2     1    14 ar  
     3     1    15 1   
     4     2    20 ar  
     5     2    31 1   
     6     3    13 ar  
     7     3    20 ar  
     8     3    21 ar  
     9     4     5 ar  
    10     4    22 ar  
    11     4    32 1   
    12     5    23 ar  
    13     5    33 1   
    14     6     7 ar  
    15     6    23 ar  
    16     6    34 1   
    17     7    22 ar  
    18     7    49 1   
    19     8    16 1   
    20     8    35 1   
    21     8    36 1   
    22     8    49 1   
    23     9    17 2   
    24     9    25 1   
    25     9    37 1   
    26    10    17 1   
    27    10    26 1   
    28    10    51 2   
    29    11    25 1   
    30    11    26 1   
    31    11    50 2   
    32    12    13 ar  
    33    12    19 ar  
    34    12    38 1   
    35    13    14 ar  
    36    14    39 1   
    37    15    48 3   
    38    16    25 1   
    39    16    40 1   
    40    16    41 1   
    41    17    42 1   
    42    18    19 ar  
    43    18    21 ar  
    44    18    43 1   
    45    19    44 1   
    46    20    45 1   
    47    21    47 1   
    48    22    47 1   
    49    23    27 1   
    50    24    30 1   
    51    26    46 1   
    52    27    30 1   
    53    28    30 2   
    54    29    30 2   
@<TRIPOS>SUBSTRUCTURE
     1 X2V         1 TEMP              0 ****  ****    0 ROOT
