@<TRIPOS>MOLECULE
X2W
   26    25     1     0     0
SMALL
No Charge or Current Charge


@<TRIPOS>ATOM
      1 CA           2.3640     0.5250    -0.2830 c3         1 X2W      -0.045300
      2 CB           0.9110     0.6080     0.2560 c3         1 X2W      -0.062400
      3 CG           0.0360    -0.6310    -0.0600 c3         1 X2W      -0.175400
      4 C3          -1.4080    -0.4250     0.4260 c          1 X2W       0.653100
      5 C            3.1300     1.8660    -0.0610 c          1 X2W       0.718000
      6 O            3.4880     2.1550     1.0730 o          1 X2W      -0.749000
      7 OXT          3.4200     2.5370    -1.0420 o          1 X2W      -0.749000
      8 C1           3.3080    -1.8410    -0.2480 c          1 X2W       0.598100
      9 O1           2.8780    -2.1430    -1.3540 o          1 X2W      -0.664100
     10 P           -3.7690     0.2740    -0.4600 p5         1 X2W       1.293900
     11 O2P         -4.6360    -0.9370    -0.4840 o          1 X2W      -0.911833
     12 O1P         -4.1160     1.1350    -1.6250 o          1 X2W      -0.911833
     13 O3P         -4.0090     1.0610     0.7810 o          1 X2W      -0.911833
     14 N1           3.1210    -0.5990     0.3200 ns         1 X2W      -0.428900
     15 C2           4.1080    -2.8170     0.6120 c3         1 X2W      -0.176100
     16 O2          -1.7520    -0.6560     1.5790 o          1 X2W      -0.578000
     17 OE2         -2.2370    -0.1620    -0.6080 os         1 X2W      -0.515500
     18 HA           2.3170     0.3670    -1.3690 h1         1 X2W       0.057700
     19 HB1C         0.9360     0.7650     1.3420 hc         1 X2W       0.051700
     20 HB2C         0.4310     1.4940    -0.1770 hc         1 X2W       0.051700
     21 H1           3.5430    -0.4510     1.2290 hn         1 X2W       0.295500
     22 HG1C         0.0460    -0.7650    -1.1480 hc         1 X2W       0.033200
     23 HG2C         0.4620    -1.5090     0.4400 hc         1 X2W       0.033200
     24 H21C         5.0680    -2.3580     0.8770 hc         1 X2W       0.031700
     25 H22C         3.6230    -2.9130     1.5910 hc         1 X2W       0.031700
     26 H23C         4.2470    -3.7930     0.1340 hc         1 X2W       0.031700
@<TRIPOS>BOND
     1     1     2 1   
     2     1     5 1   
     3     1    14 1   
     4     1    18 1   
     5     2     3 1   
     6     2    19 1   
     7     2    20 1   
     8     3     4 1   
     9     3    22 1   
    10     3    23 1   
    11     4    16 2   
    12     4    17 1   
    13     5     6 1   
    14     5     7 1   
    15     8     9 2   
    16     8    14 1   
    17     8    15 1   
    18    10    11 1   
    19    10    12 1   
    20    10    13 1   
    21    10    17 1   
    22    14    21 1   
    23    15    24 1   
    24    15    25 1   
    25    15    26 1   
@<TRIPOS>SUBSTRUCTURE
     1 X2W         1 TEMP              0 ****  ****    0 ROOT
