@<TRIPOS>MOLECULE
X2X
   16    15     1     0     0
SMALL
No Charge or Current Charge


@<TRIPOS>ATOM
      1 OAD          1.0040    -1.2060    -0.3070 o          1 X2X      -0.700500
      2 CAH          0.7330    -0.0280    -0.4900 c          1 X2X       0.703000
      3 OAE          1.1890     0.6380    -1.4110 o          1 X2X      -0.700500
      4 CAI         -0.2570     0.6820     0.4810 c3         1 X2X      -0.081000
      5 CAB          0.3210     0.6770     1.9260 c3         1 X2X      -0.057100
      6 OAF         -0.4420     2.0900     0.1040 oh         1 X2X      -0.701000
      7 CAG         -1.5940    -0.1160     0.3860 c          1 X2X       0.603100
      8 OAC         -2.1250    -0.6410     1.3620 o          1 X2X      -0.568100
      9 CAA         -2.2740    -0.1910    -0.9900 c3         1 X2X      -0.190100
     10 H2           1.2850     1.2000     1.9600 hc         1 X2X       0.026033
     11 H3          -0.3620     1.1780     2.6230 hc         1 X2X       0.026033
     12 H4           0.4820    -0.3470     2.2850 hc         1 X2X       0.026033
     13 H5           0.1340     2.2200    -0.6920 ho         1 X2X       0.475000
     14 H6          -1.6250    -0.7360    -1.6840 hc         1 X2X       0.046700
     15 H7          -3.2680    -0.6520    -0.9440 hc         1 X2X       0.046700
     16 H8          -2.3090     0.8080    -1.4390 hc         1 X2X       0.046700
@<TRIPOS>BOND
     1     1     2 1   
     2     2     3 1   
     3     2     4 1   
     4     4     5 1   
     5     4     6 1   
     6     4     7 1   
     7     5    10 1   
     8     5    11 1   
     9     5    12 1   
    10     6    13 1   
    11     7     8 2   
    12     7     9 1   
    13     9    14 1   
    14     9    15 1   
    15     9    16 1   
@<TRIPOS>SUBSTRUCTURE
     1 X2X         1 TEMP              0 ****  ****    0 ROOT
