@<TRIPOS>MOLECULE
X2X
   16    15     1     0     0
SMALL
bcc


@<TRIPOS>ATOM
      1 OAD          1.0590    -1.3420    -0.0710 o          1 X2X      -0.805800
      2 CAH          0.8300    -0.1720    -0.3980 c          1 X2X       0.913600
      3 OAE          1.3320     0.4900    -1.3300 o          1 X2X      -0.805800
      4 CAI         -0.2290     0.6180     0.4470 c3         1 X2X      -0.104200
      5 CAB          0.2500     0.7440     1.8880 c3         1 X2X      -0.057100
      6 OAF         -0.4100     1.8810    -0.1340 oh         1 X2X      -0.638800
      7 CAG         -1.5240    -0.1720     0.3400 c          1 X2X       0.603100
      8 OAC         -1.9020    -0.9090     1.2230 o          1 X2X      -0.568100
      9 CAA         -2.3120     0.0080    -0.9310 c3         1 X2X      -0.190100
     10 H2           1.1900     1.2970     1.9180 hc         1 X2X       0.026033
     11 H3          -0.4760     1.2840     2.4990 hc         1 X2X       0.026033
     12 H4           0.4200    -0.2290     2.3430 hc         1 X2X       0.026033
     13 H5           0.2320     1.8720    -0.8710 ho         1 X2X       0.436000
     14 H6          -1.6720     0.0790    -1.8100 hc         1 X2X       0.046700
     15 H7          -3.0170    -0.8120    -1.0620 hc         1 X2X       0.046700
     16 H8          -2.8780     0.9400    -0.8800 hc         1 X2X       0.046700
@<TRIPOS>BOND
     1     1     2 1   
     2     2     3 1   
     3     2     4 1   
     4     4     5 1   
     5     4     6 1   
     6     4     7 1   
     7     5    10 1   
     8     5    11 1   
     9     5    12 1   
    10     6    13 1   
    11     7     8 2   
    12     7     9 1   
    13     9    14 1   
    14     9    15 1   
    15     9    16 1   
@<TRIPOS>SUBSTRUCTURE
     1 X2X         1 TEMP              0 ****  ****    0 ROOT
