@<TRIPOS>MOLECULE
X2Y
   29    29     1     0     0
SMALL
No Charge or Current Charge


@<TRIPOS>ATOM
      1 C5           0.8300   -16.4140     2.1530 c6         1 X2Y       0.177300
      2 C4           0.0320   -17.7580     2.0970 c6         1 X2Y       0.156300
      3 C3           0.6850   -18.6590     0.9950 c6         1 X2Y       0.170300
      4 C2           0.7190   -17.9160    -0.3860 c6         1 X2Y       0.195300
      5 C1           1.4650   -16.5410    -0.2020 c6         1 X2Y       0.352300
      6 O5           0.8690   -15.7670     0.8560 os         1 X2Y      -0.485000
      7 C6           0.2360   -15.3910     3.1530 c3         1 X2Y      -0.078100
      8 O3           0.0140   -19.9400     0.8990 oh         1 X2Y      -0.672000
      9 O6          -0.5600   -19.1760    -2.8750 o          1 X2Y      -0.718867
     10 O7           1.7470   -19.4690    -3.7090 o          1 X2Y      -0.718867
     11 O8           0.8720   -17.2050    -3.2480 o          1 X2Y      -0.718867
     12 O2           1.3540   -18.7480    -1.3980 os         1 X2Y      -0.573700
     13 O9          -3.7800   -17.8830     2.1110 o          1 X2Y      -0.712200
     14 O10         -2.1690   -19.7380     2.3910 o          1 X2Y      -0.712200
     15 O11         -2.2630   -17.9260     4.0640 o          1 X2Y      -0.712200
     16 O4          -1.3730   -17.5190     1.8120 os         1 X2Y      -0.589700
     17 H5           1.8590   -16.6270     2.4770 h1         1 X2Y       0.017700
     18 H4           0.1390   -18.2510     3.0750 h1         1 X2Y       0.045700
     19 H3           1.7280   -18.8340     1.2970 h1         1 X2Y       0.052700
     20 H2          -0.3210   -17.7080    -0.6780 h1         1 X2Y       0.086700
     21 H1           1.3690   -15.9710    -1.1390 h2         1 X2Y       0.083700
     22 H61          0.1840   -15.8150     4.1630 hc         1 X2Y       0.034700
     23 H63          0.8570   -14.4890     3.2050 hc         1 X2Y       0.034700
     24 H62         -0.7760   -15.0850     2.8650 hc         1 X2Y       0.034700
     25 HO3         -0.8340   -19.8570     1.4230 ho         1 X2Y       0.494000
     26 O1           2.8540   -16.6840     0.1130 oh         1 X2Y      -0.661000
     27 HO1          3.1720   -15.7730     0.2790 ho         1 X2Y       0.415000
     28 S1           0.8070   -18.6400    -2.9410 s6         1 X2Y       1.501300
     29 S2          -2.5020   -18.3360     2.6750 s6         1 X2Y       1.500300
@<TRIPOS>BOND
     1     1     2 1   
     2     1     6 1   
     3     1     7 1   
     4     1    17 1   
     5     2     3 1   
     6     2    16 1   
     7     2    18 1   
     8     3     4 1   
     9     3     8 1   
    10     3    19 1   
    11     4     5 1   
    12     4    12 1   
    13     4    20 1   
    14     5     6 1   
    15     5    21 1   
    16     5    26 1   
    17     7    22 1   
    18     7    23 1   
    19     7    24 1   
    20     8    25 1   
    21     9    28 1   
    22    10    28 1   
    23    11    28 1   
    24    12    28 1   
    25    13    29 1   
    26    14    29 1   
    27    15    29 1   
    28    16    29 1   
    29    26    27 1   
@<TRIPOS>SUBSTRUCTURE
     1 X2Y         1 TEMP              0 ****  ****    0 ROOT
