@<TRIPOS>MOLECULE
X2Y
   29    29     1     0     0
SMALL
bcc


@<TRIPOS>ATOM
      1 C5           0.8370   -16.4230     2.1830 c6         1 X2Y       0.154100
      2 C4           0.0980   -17.7530     2.0950 c6         1 X2Y       0.133100
      3 C3           0.7390   -18.6300     1.0160 c6         1 X2Y       0.147100
      4 C2           0.7220   -17.8540    -0.3030 c6         1 X2Y       0.172100
      5 C1           1.3880   -16.4820    -0.1380 c6         1 X2Y       0.305900
      6 O5           0.8040   -15.7720     0.9220 os         1 X2Y      -0.438600
      7 C6           0.2520   -15.4760     3.2100 c3         1 X2Y      -0.078100
      8 O3           0.1650   -19.9000     0.8960 oh         1 X2Y      -0.609800
      9 O6          -0.4930   -19.4730    -2.6210 o          1 X2Y      -0.718867
     10 O7           1.8060   -19.4160    -3.5020 o          1 X2Y      -0.718867
     11 O8           0.5270   -17.3250    -3.2220 o          1 X2Y      -0.718867
     12 O2           1.4100   -18.6070    -1.2850 os         1 X2Y      -0.550500
     13 O9          -3.6360   -17.5880     1.9100 o          1 X2Y      -0.712200
     14 O10         -2.3210   -19.6610     2.1300 o          1 X2Y      -0.712200
     15 O11         -2.2930   -18.0080     3.9390 o          1 X2Y      -0.712200
     16 O4          -1.2570   -17.4650     1.7460 os         1 X2Y      -0.566500
     17 H5           1.8720   -16.6470     2.4720 h1         1 X2Y       0.017700
     18 H4           0.1600   -18.2580     3.0670 h1         1 X2Y       0.045700
     19 H3           1.7820   -18.7810     1.3160 h1         1 X2Y       0.052700
     20 H2          -0.3220   -17.6860    -0.5920 h1         1 X2Y       0.086700
     21 H1           1.1900   -15.8700    -1.0240 h2         1 X2Y       0.083700
     22 H61          0.2570   -15.9430     4.1950 hc         1 X2Y       0.034700
     23 H63          0.8500   -14.5670     3.2710 hc         1 X2Y       0.034700
     24 H62         -0.7730   -15.1970     2.9710 hc         1 X2Y       0.034700
     25 HO3         -0.7700   -19.8700     1.1630 ho         1 X2Y       0.455000
     26 O1           2.7530   -16.6800     0.0440 oh         1 X2Y      -0.598800
     27 HO1          3.2050   -15.8350    -0.0510 ho         1 X2Y       0.376000
     28 S1           0.7450   -18.7100    -2.7890 s6         1 X2Y       1.501300
     29 S2          -2.4810   -18.2430     2.5090 s6         1 X2Y       1.500300
@<TRIPOS>BOND
     1     1     2 1   
     2     1     6 1   
     3     1     7 1   
     4     1    17 1   
     5     2     3 1   
     6     2    16 1   
     7     2    18 1   
     8     3     4 1   
     9     3     8 1   
    10     3    19 1   
    11     4     5 1   
    12     4    12 1   
    13     4    20 1   
    14     5     6 1   
    15     5    21 1   
    16     5    26 1   
    17     7    22 1   
    18     7    23 1   
    19     7    24 1   
    20     8    25 1   
    21     9    28 1   
    22    10    28 1   
    23    11    28 1   
    24    12    28 1   
    25    13    29 1   
    26    14    29 1   
    27    15    29 1   
    28    16    29 1   
    29    26    27 1   
@<TRIPOS>SUBSTRUCTURE
     1 X2Y         1 TEMP              0 ****  ****    0 ROOT
