@<TRIPOS>MOLECULE
X30
   83    88     1     0     0
SMALL
No Charge or Current Charge


@<TRIPOS>ATOM
      1 N           13.9980    -1.8570     4.3710 n3         1 X30      -0.718600
      2 C           13.2290    -1.6620     5.6180 c3         1 X30       0.152100
      3 O           18.0970    -7.3520    -0.9360 o          1 X30      -0.602100
      4 C1          13.1890    -2.4790     3.2840 c6         1 X30       0.160800
      5 C10         17.4160    -6.6030    -1.6270 c          1 X30       0.618700
      6 C11         16.7790    -7.1120    -2.9060 ca         1 X30      -0.138600
      7 C12         16.6530    -6.2960    -4.0550 ca         1 X30      -0.141000
      8 C13         16.0730    -6.8040    -5.2410 ca         1 X30       0.074100
      9 C14         15.6390    -8.1540    -5.2960 ca         1 X30       0.314000
     10 C15         15.7760    -8.9630    -4.1520 ca         1 X30      -0.127000
     11 C16         16.3500    -8.4520    -2.9760 ca         1 X30      -0.066000
     12 C17         14.8340    -9.8620    -7.0710 ca         1 X30       0.397900
     13 C18         13.9160   -11.0060    -8.8170 ca         1 X30       0.138900
     14 C19         14.3060   -12.2350    -8.2390 ca         1 X30      -0.112400
     15 C2          14.0020    -2.6550     1.9610 c6         1 X30       0.162800
     16 C20         15.0840   -12.1440    -7.0610 ca         1 X30       0.385900
     17 C21         16.6250   -13.9140    -7.1880 ca         1 X30       0.315000
     18 C22         17.8650   -13.9720    -6.5290 ca         1 X30      -0.155000
     19 C23         18.9720   -14.5770    -7.1420 ca         1 X30      -0.070000
     20 C24         18.8320   -15.1320    -8.4220 ca         1 X30      -0.132000
     21 C25         17.5940   -15.0720    -9.0840 ca         1 X30      -0.044000
     22 C26         16.4760   -14.4460    -8.4820 ca         1 X30      -0.154600
     23 C27         15.1600   -14.4450    -9.2320 c          1 X30       0.587600
     24 C3          16.0670    -2.8260     3.2620 c6         1 X30       0.162800
     25 C31         13.7820   -14.9180    -5.7990 c3         1 X30      -0.099100
     26 C4          15.2450    -2.6490     4.5790 c6         1 X30       0.160800
     27 C5          16.0640    -3.5760     0.8690 c6         1 X30       0.187500
     28 C6          17.3640    -4.4140     1.0700 c6         1 X30      -0.098900
     29 C7          18.1380    -4.6080    -0.2520 c6         1 X30       0.098000
     30 C8          16.0560    -4.4560    -1.5640 c6         1 X30       0.098000
     31 C9          15.2320    -4.2380    -0.2740 c6         1 X30      -0.098900
     32 N1          15.2710    -3.4440     2.1430 n3         1 X30      -0.719600
     33 N2          17.2960    -5.2300    -1.3010 n          1 X30      -0.409800
     34 N3          15.0590    -8.6220    -6.4900 nu         1 X30      -0.920900
     35 N4          14.1580    -9.8230    -8.2260 nb         1 X30      -0.236000
     36 N5          15.3190   -10.9570    -6.4720 nb         1 X30      -0.274000
     37 N6          15.5660   -13.3210    -6.5410 na         1 X30      -0.798100
     38 N7          14.1450   -13.4670    -8.9930 n          1 X30      -0.297000
     39 O1          14.9610   -15.3290   -10.0600 o          1 X30      -0.557000
     40 O2          15.9180    -6.0110    -6.3730 os         1 X30      -0.369100
     41 H2          13.8430    -1.1620     6.3790 h1         1 X30       0.032033
     42 H1          12.3440    -1.0380     5.4340 h1         1 X30       0.032033
     43 H           12.8910    -2.6240     6.0270 h1         1 X30       0.032033
     44 H4          12.3030    -1.8630     3.0710 h1         1 X30       0.038450
     45 H3          12.8240    -3.4670     3.6020 h1         1 X30       0.038450
     46 H20         17.0240    -5.2770    -4.0170 ha         1 X30       0.123000
     47 H21         15.4250    -9.9880    -4.1530 ha         1 X30       0.152000
     48 H22         16.4470    -9.1010    -2.1070 ha         1 X30       0.131000
     49 H24         13.3980   -10.9630    -9.7740 h4         1 X30       0.032100
     50 H5          14.2320    -1.6570     1.5570 h1         1 X30       0.038200
     51 H6          13.3300    -3.1470     1.2460 h1         1 X30       0.038200
     52 H25         17.9670   -13.5440    -5.5360 ha         1 X30       0.123000
     53 H26         19.9290   -14.6200    -6.6270 ha         1 X30       0.118000
     54 H27         19.6830   -15.6090    -8.9030 ha         1 X30       0.122000
     55 H28         17.5110   -15.5100   -10.0770 ha         1 X30       0.135000
     56 H30         12.5180   -14.6580    -9.6720 h1         1 X30       0.048700
     57 H31         12.1000   -12.9670    -9.3260 h1         1 X30       0.048700
     58 H29         13.0330   -13.3660   -10.7990 h1         1 X30       0.048700
     59 H32         15.6630   -14.5280    -4.8090 h1         1 X30       0.049700
     60 H33         14.5060   -13.1900    -4.7200 h1         1 X30       0.049700
     61 H8          16.9360    -3.4460     3.5180 h1         1 X30       0.038200
     62 H7          16.4500    -1.8410     2.9550 h1         1 X30       0.038200
     63 H36         16.0970    -4.1970    -7.3970 h1         1 X30       0.044367
     64 H35         15.7800    -4.0440    -5.6570 h1         1 X30       0.044367
     65 H37         17.3970    -4.5290    -6.2350 h1         1 X30       0.044367
     66 H311        13.3310   -15.3810    -4.9130 hc         1 X30       0.045367
     67 H313        12.9980   -14.3750    -6.3400 hc         1 X30       0.045367
     68 H312        14.1650   -15.7150    -6.4470 hc         1 X30       0.045367
     69 H9          14.9980    -3.6470     4.9720 h1         1 X30       0.038450
     70 H10         15.8850    -2.1600     5.3280 h1         1 X30       0.038450
     71 H11         16.3620    -2.5740     0.5260 h1         1 X30       0.019700
     72 H13         17.1150    -5.3940     1.4970 hc         1 X30       0.057700
     73 H12         18.0450    -3.9220     1.7750 hc         1 X30       0.057700
     74 H15         19.0380    -5.2130    -0.0690 h1         1 X30       0.056450
     75 H14         18.4840    -3.6290    -0.6150 h1         1 X30       0.056450
     76 H17         16.3290    -3.4820    -1.9950 h1         1 X30       0.056450
     77 H16         15.4140    -4.9670    -2.2920 h1         1 X30       0.056450
     78 H18         14.3700    -3.6160    -0.5430 hc         1 X30       0.057700
     79 H19         14.8330    -5.2020     0.0700 hc         1 X30       0.057700
     80 H23         14.8620    -7.8540    -7.1330 hn         1 X30       0.531000
     81 C28         12.8740   -13.6230    -9.7440 c3         1 X30       0.091300
     82 C29         14.9140   -13.9650    -5.3830 c3         1 X30       0.218800
     83 C30         16.3190    -4.6280    -6.4130 c3         1 X30       0.154900
@<TRIPOS>BOND
     1     1     2 1   
     2     1     4 1   
     3     1    26 1   
     4     2    41 1   
     5     2    42 1   
     6     2    43 1   
     7     3     5 2   
     8     4    15 1   
     9     4    44 1   
    10     4    45 1   
    11     5     6 1   
    12     5    33 1   
    13     6     7 ar  
    14     6    11 ar  
    15     7     8 ar  
    16     7    46 1   
    17     8     9 ar  
    18     8    40 1   
    19     9    10 ar  
    20     9    34 1   
    21    10    11 ar  
    22    10    47 1   
    23    11    48 1   
    24    12    34 1   
    25    12    35 ar  
    26    12    36 ar  
    27    13    14 ar  
    28    13    35 ar  
    29    13    49 1   
    30    14    16 ar  
    31    14    38 1   
    32    15    32 1   
    33    15    50 1   
    34    15    51 1   
    35    16    36 ar  
    36    16    37 1   
    37    17    18 ar  
    38    17    22 ar  
    39    17    37 1   
    40    18    19 ar  
    41    18    52 1   
    42    19    20 ar  
    43    19    53 1   
    44    20    21 ar  
    45    20    54 1   
    46    21    22 ar  
    47    21    55 1   
    48    22    23 1   
    49    23    38 1   
    50    23    39 2   
    51    24    26 1   
    52    24    32 1   
    53    24    61 1   
    54    24    62 1   
    55    25    66 1   
    56    25    67 1   
    57    25    68 1   
    58    25    82 1   
    59    26    69 1   
    60    26    70 1   
    61    27    28 1   
    62    27    31 1   
    63    27    32 1   
    64    27    71 1   
    65    28    29 1   
    66    28    72 1   
    67    28    73 1   
    68    29    33 1   
    69    29    74 1   
    70    29    75 1   
    71    30    31 1   
    72    30    33 1   
    73    30    76 1   
    74    30    77 1   
    75    31    78 1   
    76    31    79 1   
    77    34    80 1   
    78    37    82 1   
    79    38    81 1   
    80    40    83 1   
    81    56    81 1   
    82    57    81 1   
    83    58    81 1   
    84    59    82 1   
    85    60    82 1   
    86    63    83 1   
    87    64    83 1   
    88    65    83 1   
@<TRIPOS>SUBSTRUCTURE
     1 X30         1 TEMP              0 ****  ****    0 ROOT
