@<TRIPOS>MOLECULE
X30
   83    88     1     0     0
SMALL
abcg2


@<TRIPOS>ATOM
      1 N           13.5320    -2.7700     4.0730 n3         1 X30      -0.718600
      2 C           12.7280    -2.8260     5.2820 c3         1 X30       0.152100
      3 O           18.8180    -6.8990    -1.5310 o          1 X30      -0.602100
      4 C1          12.8830    -3.4530     2.9620 c6         1 X30       0.160800
      5 C10         17.8460    -6.3070    -2.0190 c          1 X30       0.618700
      6 C11         17.1950    -6.8560    -3.2490 ca         1 X30      -0.138600
      7 C12         16.9780    -6.0480    -4.3720 ca         1 X30      -0.141000
      8 C13         16.4580    -6.5910    -5.5330 ca         1 X30       0.074100
      9 C14         16.1280    -7.9670    -5.6000 ca         1 X30       0.314000
     10 C15         16.3470    -8.7590    -4.4730 ca         1 X30      -0.127000
     11 C16         16.8870    -8.2070    -3.3170 ca         1 X30      -0.066000
     12 C17         15.2900    -9.6550    -7.2640 ca         1 X30       0.397900
     13 C18         14.3510   -10.8820    -8.9240 ca         1 X30       0.138900
     14 C19         14.5460   -12.0550    -8.2060 ca         1 X30      -0.112400
     15 C2          13.7160    -3.3590     1.6960 c6         1 X30       0.162800
     16 C20         15.2370   -11.9210    -6.9950 ca         1 X30       0.385900
     17 C21         16.4040   -13.9870    -6.9500 ca         1 X30       0.315000
     18 C22         17.6760   -14.3030    -6.4600 ca         1 X30      -0.155000
     19 C23         18.4970   -15.1930    -7.1370 ca         1 X30      -0.070000
     20 C24         18.0690   -15.7810    -8.3230 ca         1 X30      -0.132000
     21 C25         16.8050   -15.4870    -8.8030 ca         1 X30      -0.044000
     22 C26         15.9600   -14.5960    -8.1330 ca         1 X30      -0.154600
     23 C27         14.5740   -14.4690    -8.6720 c          1 X30       0.587600
     24 C3          15.6970    -3.2440     3.0170 c6         1 X30       0.162800
     25 C31         14.5380   -12.4500    -4.0950 c3         1 X30      -0.099100
     26 C4          14.8570    -3.3380     4.2780 c6         1 X30       0.160800
     27 C5          15.8720    -3.8610     0.6640 c6         1 X30       0.187500
     28 C6          17.2550    -4.4870     0.8750 c6         1 X30      -0.098900
     29 C7          18.0730    -4.4820    -0.4130 c6         1 X30       0.098000
     30 C8          16.0530    -4.5770    -1.7710 c6         1 X30       0.098000
     31 C9          15.1900    -4.5720    -0.5090 c6         1 X30      -0.098900
     32 N1          15.0540    -3.9240     1.8890 n3         1 X30      -0.719600
     33 N2          17.3710    -5.1470    -1.5050 n          1 X30      -0.409800
     34 N3          15.5880    -8.4020    -6.8060 nu         1 X30      -0.920900
     35 N4          14.7180    -9.6840    -8.4810 nb         1 X30      -0.236000
     36 N5          15.5870   -10.7270    -6.5280 nb         1 X30      -0.274000
     37 N6          15.5910   -13.0500    -6.2540 na         1 X30      -0.798100
     38 N7          13.9400   -13.2670    -8.6140 n          1 X30      -0.297000
     39 O1          14.0170   -15.4480    -9.1710 o          1 X30      -0.557000
     40 O2          16.2200    -5.8850    -6.6720 os         1 X30      -0.369100
     41 H2          13.2280    -2.2780     6.0830 h1         1 X30       0.032033
     42 H1          11.7550    -2.3650     5.1010 h1         1 X30       0.032033
     43 H           12.5590    -3.8600     5.6270 h1         1 X30       0.032033
     44 H4          11.9080    -2.9950     2.7830 h1         1 X30       0.038450
     45 H3          12.7100    -4.5180     3.2020 h1         1 X30       0.038450
     46 H20         17.2320    -5.0000    -4.3320 ha         1 X30       0.123000
     47 H21         16.0980    -9.8050    -4.5110 ha         1 X30       0.152000
     48 H22         17.0630    -8.8410    -2.4570 ha         1 X30       0.131000
     49 H24         13.8500   -10.9120    -9.8850 h4         1 X30       0.032100
     50 H5          13.7790    -2.3030     1.3800 h1         1 X30       0.038200
     51 H6          13.1950    -3.9060     0.9130 h1         1 X30       0.038200
     52 H25         18.0310   -13.8380    -5.5530 ha         1 X30       0.123000
     53 H26         19.4790   -15.4150    -6.7390 ha         1 X30       0.118000
     54 H27         18.7100   -16.4680    -8.8590 ha         1 X30       0.122000
     55 H28         16.4380   -15.9590    -9.7040 ha         1 X30       0.135000
     56 H30         12.0280   -14.0960    -8.7990 h1         1 X30       0.048700
     57 H31         12.0830   -12.3220    -8.7070 h1         1 X30       0.048700
     58 H29         12.5400   -13.1570   -10.2090 h1         1 X30       0.048700
     59 H32         16.1350   -13.8370    -4.4280 h1         1 X30       0.049700
     60 H33         16.6170   -12.1530    -4.6200 h1         1 X30       0.049700
     61 H8          16.6600    -3.7040     3.2220 h1         1 X30       0.038200
     62 H7          15.8770    -2.1800     2.7800 h1         1 X30       0.038200
     63 H36         16.2170    -4.1290    -7.6640 h1         1 X30       0.044367
     64 H35         15.8910    -3.9710    -5.9180 h1         1 X30       0.044367
     65 H37         17.5510    -4.2920    -6.4930 h1         1 X30       0.044367
     66 H311        14.7320   -12.3750    -3.0240 hc         1 X30       0.045367
     67 H313        14.1800   -11.4810    -4.4410 hc         1 X30       0.045367
     68 H312        13.7500   -13.1880    -4.2530 hc         1 X30       0.045367
     69 H9          14.7870    -4.3970     4.5870 h1         1 X30       0.038450
     70 H10         15.3560    -2.7940     5.0830 h1         1 X30       0.038450
     71 H11         16.0210    -2.8030     0.3780 h1         1 X30       0.019700
     72 H13         17.1320    -5.5140     1.2300 hc         1 X30       0.057700
     73 H12         17.8260    -3.9430     1.6250 hc         1 X30       0.057700
     74 H15         19.0270    -4.9770    -0.2650 h1         1 X30       0.056450
     75 H14         18.2630    -3.4480    -0.7230 h1         1 X30       0.056450
     76 H17         16.1830    -3.5540    -2.1390 h1         1 X30       0.056450
     77 H16         15.5560    -5.1490    -2.5460 h1         1 X30       0.056450
     78 H18         14.2490    -4.0910    -0.7700 hc         1 X30       0.057700
     79 H19         14.9670    -5.6030    -0.2180 hc         1 X30       0.057700
     80 H23         15.3930    -7.6690    -7.4720 hn         1 X30       0.531000
     81 C28         12.5640   -13.2060    -9.1180 c3         1 X30       0.091300
     82 C29         15.8140   -12.8700    -4.8100 c3         1 X30       0.218800
     83 C30         16.4910    -4.4830    -6.6740 c3         1 X30       0.154900
@<TRIPOS>BOND
     1     1     2 1   
     2     1     4 1   
     3     1    26 1   
     4     2    41 1   
     5     2    42 1   
     6     2    43 1   
     7     3     5 2   
     8     4    15 1   
     9     4    44 1   
    10     4    45 1   
    11     5     6 1   
    12     5    33 1   
    13     6     7 ar  
    14     6    11 ar  
    15     7     8 ar  
    16     7    46 1   
    17     8     9 ar  
    18     8    40 1   
    19     9    10 ar  
    20     9    34 1   
    21    10    11 ar  
    22    10    47 1   
    23    11    48 1   
    24    12    34 1   
    25    12    35 ar  
    26    12    36 ar  
    27    13    14 ar  
    28    13    35 ar  
    29    13    49 1   
    30    14    16 ar  
    31    14    38 1   
    32    15    32 1   
    33    15    50 1   
    34    15    51 1   
    35    16    36 ar  
    36    16    37 1   
    37    17    18 ar  
    38    17    22 ar  
    39    17    37 1   
    40    18    19 ar  
    41    18    52 1   
    42    19    20 ar  
    43    19    53 1   
    44    20    21 ar  
    45    20    54 1   
    46    21    22 ar  
    47    21    55 1   
    48    22    23 1   
    49    23    38 1   
    50    23    39 2   
    51    24    26 1   
    52    24    32 1   
    53    24    61 1   
    54    24    62 1   
    55    25    66 1   
    56    25    67 1   
    57    25    68 1   
    58    25    82 1   
    59    26    69 1   
    60    26    70 1   
    61    27    28 1   
    62    27    31 1   
    63    27    32 1   
    64    27    71 1   
    65    28    29 1   
    66    28    72 1   
    67    28    73 1   
    68    29    33 1   
    69    29    74 1   
    70    29    75 1   
    71    30    31 1   
    72    30    33 1   
    73    30    76 1   
    74    30    77 1   
    75    31    78 1   
    76    31    79 1   
    77    34    80 1   
    78    37    82 1   
    79    38    81 1   
    80    40    83 1   
    81    56    81 1   
    82    57    81 1   
    83    58    81 1   
    84    59    82 1   
    85    60    82 1   
    86    63    83 1   
    87    64    83 1   
    88    65    83 1   
@<TRIPOS>SUBSTRUCTURE
     1 X30         1 TEMP              0 ****  ****    0 ROOT
