@<TRIPOS>MOLECULE
X32
   65    66     1     0     0
SMALL
No Charge or Current Charge


@<TRIPOS>ATOM
      1 C3          -5.5130    -2.8980     0.9770 ca         1 X32      -0.085500
      2 C2          -6.3780    -3.8690     0.4410 ca         1 X32      -0.122500
      3 C1          -7.4880    -3.4760    -0.3250 ca         1 X32      -0.117000
      4 C6          -7.7320    -2.1110    -0.5560 ca         1 X32      -0.122500
      5 C5          -6.8680    -1.1400    -0.0210 ca         1 X32      -0.085500
      6 C4          -5.7540    -1.5280     0.7500 ca         1 X32      -0.075300
      7 C7          -4.8130    -0.4810     1.3330 c3         1 X32       0.229900
      8 O8          -3.5930    -0.4980     0.5780 os         1 X32      -0.472100
      9 C9          -2.6040     0.3560     0.9540 c          1 X32       0.613100
     10 O22         -2.6530     1.1440     1.8860 o          1 X32      -0.565000
     11 N10         -1.5200     0.1450     0.1440 ns         1 X32      -0.431900
     12 C11         -0.2160     0.8510     0.2320 c3         1 X32      -0.262000
     13 P12         -0.0520     2.4450    -0.7060 p5         1 X32       1.375300
     14 O24          0.0410     2.2270    -2.1760 o          1 X32      -0.834500
     15 O23         -1.0730     3.4370    -0.2700 o          1 X32      -0.834500
     16 N13          1.4030     2.9880    -0.1630 n7         1 X32      -0.963500
     17 C14          2.7150     2.3110    -0.4050 c3         1 X32       0.168500
     18 C15          2.9250     0.9740     0.3960 c          1 X32       0.567100
     19 O29          2.8340     0.9110     1.6190 o          1 X32      -0.653100
     20 C25          3.8710     3.3000    -0.0840 c3         1 X32      -0.078400
     21 C26          3.9370     4.5840    -0.9620 c3         1 X32      -0.052700
     22 C27          5.0330     5.5450    -0.4470 c3         1 X32      -0.083600
     23 C28          4.1450     4.2760    -2.4650 c3         1 X32      -0.083600
     24 N16          3.2040    -0.1400    -0.3740 ns         1 X32      -0.463900
     25 C17          3.4210    -1.5080     0.1590 c3         1 X32      -0.032300
     26 C18          4.9260    -1.7360     0.5080 c          1 X32       0.712000
     27 O37          5.7720    -1.4750    -0.3380 o          1 X32      -0.737500
     28 C30          2.9040    -2.5900    -0.8190 c3         1 X32      -0.034100
     29 C31          1.4010    -2.5220    -1.0780 ca         1 X32      -0.062300
     30 C36          0.4970    -3.0570    -0.1390 ca         1 X32      -0.106500
     31 C32          0.9030    -1.9600    -2.2700 ca         1 X32      -0.106500
     32 C35         -0.8860    -3.0420    -0.3940 ca         1 X32      -0.118000
     33 C33         -0.4800    -1.9410    -2.5230 ca         1 X32      -0.118000
     34 C34         -1.3750    -2.4890    -1.5890 ca         1 X32      -0.126000
     35 O19          5.2060    -2.1250     1.6330 o          1 X32      -0.737500
     36 H3          -4.6530    -3.2090     1.5670 ha         1 X32       0.118000
     37 H2          -6.1860    -4.9240     0.6190 ha         1 X32       0.102500
     38 H1          -8.1570    -4.2260    -0.7400 ha         1 X32       0.097000
     39 H6          -8.5910    -1.8060    -1.1510 ha         1 X32       0.102500
     40 H5          -7.0640    -0.0860    -0.2070 ha         1 X32       0.118000
     41 H7          -5.2850     0.5100     1.2880 h1         1 X32       0.046200
     42 H7A         -4.6200    -0.7170     2.3890 h1         1 X32       0.046200
     43 HN10        -1.6400    -0.5800    -0.5540 hn         1 X32       0.334500
     44 H11          0.0170     1.0590     1.2820 h1         1 X32       0.063700
     45 H11A         0.5440     0.1770    -0.1730 h1         1 X32       0.063700
     46 HN13         1.2390     3.0550     0.8380 hn         1 X32       0.434000
     47 H14          2.7950     2.0460    -1.4680 h1         1 X32       0.079700
     48 H25          3.7950     3.5920     0.9710 hc         1 X32       0.042700
     49 H25A         4.8230     2.7630    -0.1830 hc         1 X32       0.042700
     50 H26          2.9800     5.1130    -0.8650 hc         1 X32       0.056700
     51 H27          6.0250     5.0830    -0.5210 hc         1 X32       0.023367
     52 H27A         5.0420     6.4730    -1.0320 hc         1 X32       0.023367
     53 H27B         4.8540     5.8110     0.6020 hc         1 X32       0.023367
     54 H28          3.2960     3.7180    -2.8770 hc         1 X32       0.023367
     55 H28A         4.2360     5.2050    -3.0400 hc         1 X32       0.023367
     56 H28B         5.0560     3.6860    -2.6210 hc         1 X32       0.023367
     57 HN16         3.2840     0.0010    -1.3740 hn         1 X32       0.320500
     58 H17          2.8570    -1.6080     1.0950 h1         1 X32       0.066700
     59 H30          3.4560    -2.5140    -1.7640 hc         1 X32       0.044200
     60 H30A         3.1540    -3.5760    -0.4090 hc         1 X32       0.044200
     61 H36          0.8680    -3.4940     0.7850 ha         1 X32       0.120500
     62 H32          1.5880    -1.5440    -3.0070 ha         1 X32       0.120500
     63 H35         -1.5770    -3.4610     0.3340 ha         1 X32       0.102500
     64 H33         -0.8570    -1.5080    -3.4470 ha         1 X32       0.102500
     65 H34         -2.4440    -2.4810    -1.7870 ha         1 X32       0.090000
@<TRIPOS>BOND
     1     1     2 ar  
     2     1     6 ar  
     3     1    36 1   
     4     2     3 ar  
     5     2    37 1   
     6     3     4 ar  
     7     3    38 1   
     8     4     5 ar  
     9     4    39 1   
    10     5     6 ar  
    11     5    40 1   
    12     6     7 1   
    13     7     8 1   
    14     7    41 1   
    15     7    42 1   
    16     8     9 1   
    17     9    10 2   
    18     9    11 1   
    19    11    12 1   
    20    11    43 1   
    21    12    13 1   
    22    12    44 1   
    23    12    45 1   
    24    13    14 1   
    25    13    15 1   
    26    13    16 1   
    27    16    17 1   
    28    16    46 1   
    29    17    18 1   
    30    17    20 1   
    31    17    47 1   
    32    18    19 2   
    33    18    24 1   
    34    20    21 1   
    35    20    48 1   
    36    20    49 1   
    37    21    22 1   
    38    21    23 1   
    39    21    50 1   
    40    22    51 1   
    41    22    52 1   
    42    22    53 1   
    43    23    54 1   
    44    23    55 1   
    45    23    56 1   
    46    24    25 1   
    47    24    57 1   
    48    25    26 1   
    49    25    28 1   
    50    25    58 1   
    51    26    27 1   
    52    26    35 1   
    53    28    29 1   
    54    28    59 1   
    55    28    60 1   
    56    29    30 ar  
    57    29    31 ar  
    58    30    32 ar  
    59    30    61 1   
    60    31    33 ar  
    61    31    62 1   
    62    32    34 ar  
    63    32    63 1   
    64    33    34 ar  
    65    33    64 1   
    66    34    65 1   
@<TRIPOS>SUBSTRUCTURE
     1 X32         1 TEMP              0 ****  ****    0 ROOT
