@<TRIPOS>MOLECULE
X32
   65    66     1     0     0
SMALL
bcc


@<TRIPOS>ATOM
      1 C3          -6.3410    -2.4830    -0.7920 ca         1 X32      -0.103500
      2 C2          -7.5070    -2.5880    -1.5380 ca         1 X32      -0.140500
      3 C1          -8.5790    -1.7430    -1.2750 ca         1 X32      -0.135000
      4 C6          -8.4790    -0.7950    -0.2650 ca         1 X32      -0.140500
      5 C5          -7.3100    -0.6940     0.4780 ca         1 X32      -0.103500
      6 C4          -6.2330    -1.5370     0.2230 ca         1 X32      -0.075300
      7 C7          -4.9610    -1.4070     1.0060 c3         1 X32       0.206700
      8 O8          -4.1110    -0.5210     0.2740 os         1 X32      -0.448900
      9 C9          -2.8720    -0.3310     0.7590 c          1 X32       0.729100
     10 O22         -2.4530    -0.8740     1.7620 o          1 X32      -0.614000
     11 N10         -2.1790     0.5150    -0.0170 ns         1 X32      -0.498900
     12 C11         -0.8320     0.9340     0.3030 c3         1 X32      -0.104200
     13 P12         -0.1290     1.8640    -1.1310 p5         1 X32       1.217500
     14 O24          0.3120     0.9190    -2.2230 o          1 X32      -0.834500
     15 O23         -1.1590     2.9280    -1.4410 o          1 X32      -0.834500
     16 N13          1.2600     2.5940    -0.4840 n7         1 X32      -0.908300
     17 C14          2.5810     2.0610    -0.6780 c3         1 X32       0.168500
     18 C15          2.8720     0.8150     0.1650 c          1 X32       0.634100
     19 O29          2.3510     0.6330     1.2570 o          1 X32      -0.653100
     20 C25          3.6440     3.1190    -0.3510 c3         1 X32      -0.078400
     21 C26          3.4720     4.4440    -1.0950 c3         1 X32      -0.052700
     22 C27          4.5840     5.4100    -0.7000 c3         1 X32      -0.083600
     23 C28          3.4330     4.2490    -2.6060 c3         1 X32      -0.083600
     24 N16          3.7750    -0.0070    -0.3880 ns         1 X32      -0.530900
     25 C17          4.3830    -1.1560     0.2340 c3         1 X32      -0.032300
     26 C18          5.9250    -1.1080     0.0750 c          1 X32       0.922600
     27 O37          6.3860    -0.2970    -0.7500 o          1 X32      -0.842800
     28 C30          3.8630    -2.4690    -0.3830 c3         1 X32      -0.034100
     29 C31          2.3950    -2.7110    -0.1750 ca         1 X32      -0.062300
     30 C36          1.9630    -3.6200     0.7890 ca         1 X32      -0.124500
     31 C32          1.4320    -2.0370    -0.9240 ca         1 X32      -0.124500
     32 C35          0.6100    -3.8550     0.9980 ca         1 X32      -0.136000
     33 C33          0.0800    -2.2610    -0.7120 ca         1 X32      -0.136000
     34 C34         -0.3390    -3.1740     0.2480 ca         1 X32      -0.144000
     35 O19          6.5620    -1.9190     0.7720 o          1 X32      -0.842800
     36 H3          -5.5110    -3.1490    -0.9980 ha         1 X32       0.136000
     37 H2          -7.5800    -3.3300    -2.3220 ha         1 X32       0.120500
     38 H1          -9.4900    -1.8260    -1.8530 ha         1 X32       0.115000
     39 H6          -9.3110    -0.1370    -0.0530 ha         1 X32       0.120500
     40 H5          -7.2370     0.0450     1.2680 ha         1 X32       0.136000
     41 H7          -5.1590    -1.0060     2.0020 h1         1 X32       0.046200
     42 H7A         -4.4810    -2.3810     1.1240 h1         1 X32       0.046200
     43 HN10        -2.6750     1.0350    -0.7250 hn         1 X32       0.334500
     44 H11         -0.8220     1.5850     1.1860 h1         1 X32       0.063700
     45 H11A        -0.2120     0.0690     0.5290 h1         1 X32       0.063700
     46 HN13         1.1410     3.0770     0.3950 hn         1 X32       0.378800
     47 H14          2.6780     1.7850    -1.7300 h1         1 X32       0.079700
     48 H25          3.6320     3.3120     0.7280 hc         1 X32       0.042700
     49 H25A         4.6340     2.7060    -0.5780 hc         1 X32       0.042700
     50 H26          2.5180     4.8810    -0.7870 hc         1 X32       0.056700
     51 H27          5.5610     5.0400    -1.0210 hc         1 X32       0.023367
     52 H27A         4.4370     6.3900    -1.1570 hc         1 X32       0.023367
     53 H27B         4.6240     5.5530     0.3820 hc         1 X32       0.023367
     54 H28          2.5680     3.6600    -2.9150 hc         1 X32       0.023367
     55 H28A         3.3730     5.2090    -3.1230 hc         1 X32       0.023367
     56 H28B         4.3320     3.7380    -2.9600 hc         1 X32       0.023367
     57 HN16         4.2180     0.2840    -1.2460 hn         1 X32       0.320500
     58 H17          4.1320    -1.1450     1.2960 h1         1 X32       0.066700
     59 H30          4.0920    -2.4580    -1.4530 hc         1 X32       0.044200
     60 H30A         4.4310    -3.2920     0.0530 hc         1 X32       0.044200
     61 H36          2.6950    -4.1570     1.3810 ha         1 X32       0.138500
     62 H32          1.7270    -1.3060    -1.6640 ha         1 X32       0.138500
     63 H35          0.2980    -4.5700     1.7500 ha         1 X32       0.120500
     64 H33         -0.6430    -1.6980    -1.2880 ha         1 X32       0.120500
     65 H34         -1.3940    -3.3460     0.4160 ha         1 X32       0.108000
@<TRIPOS>BOND
     1     1     2 ar  
     2     1     6 ar  
     3     1    36 1   
     4     2     3 ar  
     5     2    37 1   
     6     3     4 ar  
     7     3    38 1   
     8     4     5 ar  
     9     4    39 1   
    10     5     6 ar  
    11     5    40 1   
    12     6     7 1   
    13     7     8 1   
    14     7    41 1   
    15     7    42 1   
    16     8     9 1   
    17     9    10 2   
    18     9    11 1   
    19    11    12 1   
    20    11    43 1   
    21    12    13 1   
    22    12    44 1   
    23    12    45 1   
    24    13    14 1   
    25    13    15 1   
    26    13    16 1   
    27    16    17 1   
    28    16    46 1   
    29    17    18 1   
    30    17    20 1   
    31    17    47 1   
    32    18    19 2   
    33    18    24 1   
    34    20    21 1   
    35    20    48 1   
    36    20    49 1   
    37    21    22 1   
    38    21    23 1   
    39    21    50 1   
    40    22    51 1   
    41    22    52 1   
    42    22    53 1   
    43    23    54 1   
    44    23    55 1   
    45    23    56 1   
    46    24    25 1   
    47    24    57 1   
    48    25    26 1   
    49    25    28 1   
    50    25    58 1   
    51    26    27 1   
    52    26    35 1   
    53    28    29 1   
    54    28    59 1   
    55    28    60 1   
    56    29    30 ar  
    57    29    31 ar  
    58    30    32 ar  
    59    30    61 1   
    60    31    33 ar  
    61    31    62 1   
    62    32    34 ar  
    63    32    63 1   
    64    33    34 ar  
    65    33    64 1   
    66    34    65 1   
@<TRIPOS>SUBSTRUCTURE
     1 X32         1 TEMP              0 ****  ****    0 ROOT
