@<TRIPOS>MOLECULE
X34
   26    26     1     0     0
SMALL
No Charge or Current Charge


@<TRIPOS>ATOM
      1 C5           1.3600   -22.0570    -0.5960 c6         1 X34       0.161300
      2 C4           0.4370   -23.3070    -0.3510 c6         1 X34       0.216300
      3 C3          -0.6990   -22.8230     0.6200 c6         1 X34       0.171300
      4 C2          -0.1050   -22.2290     1.9310 c6         1 X34       0.054300
      5 C1           0.8930   -21.0740     1.5950 c6         1 X34       0.377300
      6 O5           1.8800   -21.5180     0.6480 os         1 X34      -0.433000
      7 C6           2.5840   -22.3420    -1.5020 c3         1 X34      -0.079100
      8 O3          -1.6280   -23.8560     0.9830 oh         1 X34      -0.672000
      9 O2          -1.1770   -21.7810     2.8090 oh         1 X34      -0.749000
     10 O6           2.1720   -26.6610     0.1830 o          1 X34      -0.705867
     11 O7           1.8000   -25.4400    -1.9320 o          1 X34      -0.705867
     12 O8          -0.1220   -26.3120    -0.6620 o          1 X34      -0.705867
     13 O4           1.1840   -24.4160     0.2190 os         1 X34      -0.587700
     14 H5           0.7670   -21.2790    -1.0970 h1         1 X34       0.028700
     15 H4          -0.0200   -23.6040    -1.3070 h1         1 X34       0.064700
     16 H3          -1.2530   -22.0250     0.1040 h1         1 X34       0.020700
     17 H2           0.4790   -23.0240     2.4220 h1         1 X34       0.092700
     18 H1           1.4020   -20.7630     2.5210 h2         1 X34       0.051700
     19 H63          3.1650   -21.4280    -1.6720 hc         1 X34       0.049367
     20 H62          3.2540   -23.0850    -1.0540 hc         1 X34       0.049367
     21 H61          2.2680   -22.7160    -2.4830 hc         1 X34       0.049367
     22 HO3         -2.0160   -23.5230     1.8270 ho         1 X34       0.493000
     23 HO2         -0.8110   -21.7180     3.7250 ho         1 X34       0.501000
     24 O1           0.1990   -19.9590     1.0410 oh         1 X34      -0.757000
     25 HO1         -0.6370   -19.9340     1.5620 ho         1 X34       0.518000
     26 S1           1.2650   -25.8280    -0.6200 s6         1 X34       1.497300
@<TRIPOS>BOND
     1     1     2 1   
     2     1     6 1   
     3     1     7 1   
     4     1    14 1   
     5     2     3 1   
     6     2    13 1   
     7     2    15 1   
     8     3     4 1   
     9     3     8 1   
    10     3    16 1   
    11     4     5 1   
    12     4     9 1   
    13     4    17 1   
    14     5     6 1   
    15     5    18 1   
    16     5    24 1   
    17     7    19 1   
    18     7    20 1   
    19     7    21 1   
    20     8    22 1   
    21     9    23 1   
    22    10    26 1   
    23    11    26 1   
    24    12    26 1   
    25    13    26 1   
    26    24    25 1   
@<TRIPOS>SUBSTRUCTURE
     1 X34         1 TEMP              0 ****  ****    0 ROOT
