@<TRIPOS>MOLECULE
X35
   30    31     1     0     0
SMALL
No Charge or Current Charge


@<TRIPOS>ATOM
      1 N1           1.9460    -1.4530     0.2980 nc         1 X35      -0.823000
      2 C2           0.6560    -1.7550     0.4780 cc         1 X35       0.702900
      3 N3           0.5150    -3.0110     0.8270 nv         1 X35      -1.049900
      4 C4          -0.2940    -0.8100     0.2600 cd         1 X35      -0.475600
      5 C5          -1.7470    -1.0700     0.2950 c          1 X35       0.651300
      6 C6          -2.6790     0.0790     0.0890 ca         1 X35      -0.199600
      7 C7          -3.7720    -0.0910    -0.7750 ca         1 X35       0.376900
      8 N8          -4.6830     0.8830    -1.0180 nb         1 X35      -0.672000
      9 C9          -4.5270     2.0660    -0.3810 ca         1 X35       0.345900
     10 C10         -3.4740     2.3170     0.5140 ca         1 X35      -0.174000
     11 C11         -2.5310     1.3070     0.7630 ca         1 X35      -0.049000
     12 O12         -2.1950    -2.1940     0.4790 o          1 X35      -0.600100
     13 S13          0.4990     0.6920    -0.2070 ss         1 X35      -0.103400
     14 C14          2.0150    -0.1960    -0.0690 cd         1 X35       0.779300
     15 N15          3.2280     0.3490    -0.3180 nu         1 X35      -0.908100
     16 C16          4.5300    -0.2770    -0.1140 c3         1 X35       0.258000
     17 C17          5.5850     0.7520    -0.4410 c2         1 X35      -0.249200
     18 C18          5.8550     1.8560     0.2790 c2         1 X35      -0.301000
     19 HN3          1.2990    -3.5940     0.5720 hn         1 X35       0.517500
     20 HN3A        -0.4120    -3.3930     0.6740 hn         1 X35       0.517500
     21 H7          -3.9260    -1.0320    -1.3020 h4         1 X35       0.031100
     22 H9          -5.2720     2.8330    -0.5910 h4         1 X35       0.018100
     23 H10         -3.4000     3.2810     1.0090 ha         1 X35       0.123000
     24 H11         -1.7190     1.4730     1.4690 ha         1 X35       0.127000
     25 HN15         3.2070     1.3400    -0.5340 hn         1 X35       0.505000
     26 H16          4.6410    -0.6120     0.9270 h1         1 X35       0.066700
     27 H16A         4.6430    -1.1550    -0.7670 h1         1 X35       0.066700
     28 H17          6.1500     0.5290    -1.3490 ha         1 X35       0.189000
     29 H18          6.6370     2.5570    -0.0190 ha         1 X35       0.164000
     30 H18A         5.3070     2.0950     1.1920 ha         1 X35       0.164000
@<TRIPOS>BOND
     1     1     2 1   
     2     1    14 2   
     3     2     3 1   
     4     2     4 2   
     5     3    19 1   
     6     3    20 1   
     7     4     5 1   
     8     4    13 1   
     9     5     6 1   
    10     5    12 2   
    11     6     7 ar  
    12     6    11 ar  
    13     7     8 ar  
    14     7    21 1   
    15     8     9 ar  
    16     9    10 ar  
    17     9    22 1   
    18    10    11 ar  
    19    10    23 1   
    20    11    24 1   
    21    13    14 1   
    22    14    15 1   
    23    15    16 1   
    24    15    25 1   
    25    16    17 1   
    26    16    26 1   
    27    16    27 1   
    28    17    18 2   
    29    17    28 1   
    30    18    29 1   
    31    18    30 1   
@<TRIPOS>SUBSTRUCTURE
     1 X35         1 TEMP              0 ****  ****    0 ROOT
