@<TRIPOS>MOLECULE
X35
   30    31     1     0     0
SMALL
abcg2


@<TRIPOS>ATOM
      1 N1           2.0640    -1.1110     0.3560 nc         1 X35      -0.823000
      2 C2           0.8420    -1.6230     0.0880 cc         1 X35       0.702900
      3 N3           0.7320    -2.9230    -0.1700 nv         1 X35      -1.049900
      4 C4          -0.2300    -0.7120     0.0950 cd         1 X35      -0.475600
      5 C5          -1.5770    -1.0120    -0.2120 c          1 X35       0.651300
      6 C6          -2.5920     0.0830    -0.1320 ca         1 X35      -0.199600
      7 C7          -3.4950     0.2480    -1.1790 ca         1 X35       0.376900
      8 N8          -4.4480     1.1680    -1.1890 nb         1 X35      -0.672000
      9 C9          -4.5600     1.9600    -0.1270 ca         1 X35       0.345900
     10 C10         -3.7310     1.8670     0.9800 ca         1 X35      -0.174000
     11 C11         -2.7250     0.9140     0.9750 ca         1 X35      -0.049000
     12 O12         -1.9510    -2.1370    -0.5670 o          1 X35      -0.600100
     13 S13          0.4150     0.8900     0.4480 ss         1 X35      -0.103400
     14 C14          1.9990     0.1800     0.5660 cd         1 X35       0.779300
     15 N15          3.0560     0.9240     0.8700 nu         1 X35      -0.908100
     16 C16          4.4080     0.3920     0.9110 c3         1 X35       0.258000
     17 C17          5.0320     0.3230    -0.4510 c2         1 X35      -0.249200
     18 C18          6.1390     0.9720    -0.7870 c2         1 X35      -0.301000
     19 HN3          1.5430    -3.5150    -0.1250 hn         1 X35       0.517500
     20 HN3A        -0.1680    -3.3200    -0.3800 hn         1 X35       0.517500
     21 H7          -3.4300    -0.3880    -2.0550 h4         1 X35       0.031100
     22 H9          -5.3530     2.6990    -0.1540 h4         1 X35       0.018100
     23 H10         -3.8750     2.5230     1.8270 ha         1 X35       0.123000
     24 H11         -2.0770     0.8050     1.8360 ha         1 X35       0.127000
     25 HN15         2.9510     1.9250     0.9190 hn         1 X35       0.505000
     26 H16          4.9900     1.0350     1.5690 h1         1 X35       0.066700
     27 H16A         4.3710    -0.5990     1.3670 h1         1 X35       0.066700
     28 H17          4.5250    -0.3020    -1.1790 ha         1 X35       0.189000
     29 H18          6.5620     0.8940    -1.7800 ha         1 X35       0.164000
     30 H18A         6.6640     1.6060    -0.0820 ha         1 X35       0.164000
@<TRIPOS>BOND
     1     1     2 1   
     2     1    14 2   
     3     2     3 1   
     4     2     4 2   
     5     3    19 1   
     6     3    20 1   
     7     4     5 1   
     8     4    13 1   
     9     5     6 1   
    10     5    12 2   
    11     6     7 ar  
    12     6    11 ar  
    13     7     8 ar  
    14     7    21 1   
    15     8     9 ar  
    16     9    10 ar  
    17     9    22 1   
    18    10    11 ar  
    19    10    23 1   
    20    11    24 1   
    21    13    14 1   
    22    14    15 1   
    23    15    16 1   
    24    15    25 1   
    25    16    17 1   
    26    16    26 1   
    27    16    27 1   
    28    17    18 2   
    29    17    28 1   
    30    18    29 1   
    31    18    30 1   
@<TRIPOS>SUBSTRUCTURE
     1 X35         1 TEMP              0 ****  ****    0 ROOT
