@<TRIPOS>MOLECULE
X36
   34    36     1     0     0
SMALL
bcc


@<TRIPOS>ATOM
      1 N1           1.2010    -1.2460     0.2190 nc         1 X36      -0.804000
      2 C2          -0.0390    -1.7820     0.3450 cc         1 X36       0.760200
      3 N3          -0.1500    -3.0800     0.6100 nv         1 X36      -0.939500
      4 C4          -1.1120    -0.8920     0.1820 cd         1 X36      -0.389000
      5 C5          -2.4910    -1.2300     0.2220 c          1 X36       0.647300
      6 C6          -3.5000    -0.1360     0.0920 ca         1 X36      -0.149600
      7 C7          -4.5720    -0.3020    -0.7830 ca         1 X36      -0.093000
      8 C8          -5.5360     0.6870    -0.9020 ca         1 X36      -0.137500
      9 C9          -5.4550     1.8380    -0.1270 ca         1 X36      -0.115000
     10 C10         -4.4050     1.9970     0.7670 ca         1 X36      -0.137500
     11 C11         -3.4270     1.0170     0.8720 ca         1 X36      -0.093000
     12 O12         -2.8800    -2.3960     0.3420 o          1 X36      -0.596100
     13 S13         -0.4600     0.6980    -0.1820 ss         1 X36      -0.227300
     14 C14          1.1390     0.0250    -0.0570 cd         1 X36       0.770300
     15 N15          2.1940     0.8350    -0.2420 nu         1 X36      -0.723300
     16 C16          3.5630     0.5540    -0.1610 ca         1 X36       0.157600
     17 C17          4.4270     1.6270    -0.4020 ca         1 X36      -0.163000
     18 C18          5.7980     1.4500    -0.3420 ca         1 X36      -0.101500
     19 C19          6.3340     0.2040    -0.0410 ca         1 X36      -0.150000
     20 C20          5.4750    -0.8580     0.1970 ca         1 X36      -0.101500
     21 C21          4.0960    -0.6990     0.1400 ca         1 X36      -0.163000
     22 HN3          0.6740    -3.6400     0.7380 hn         1 X36       0.462300
     23 HN3A        -1.0600    -3.4990     0.6930 hn         1 X36       0.462300
     24 H7          -4.6440    -1.2010    -1.3820 ha         1 X36       0.140500
     25 H8          -6.3560     0.5590    -1.5970 ha         1 X36       0.131500
     26 H9          -6.2120     2.6070    -0.2160 ha         1 X36       0.130000
     27 H10         -4.3470     2.8820     1.3860 ha         1 X36       0.131500
     28 H11         -2.6250     1.1430     1.5890 ha         1 X36       0.140500
     29 HN15         1.9790     1.7960    -0.4630 hn         1 X36       0.451800
     30 H17          4.0210     2.6030    -0.6400 ha         1 X36       0.148000
     31 H18          6.4480     2.2930    -0.5320 ha         1 X36       0.132500
     32 H19          7.4060     0.0650     0.0060 ha         1 X36       0.135000
     33 H20          5.8750    -1.8350     0.4340 ha         1 X36       0.132500
     34 H21          3.4490    -1.5400     0.3270 ha         1 X36       0.148000
@<TRIPOS>BOND
     1     1     2 1   
     2     1    14 2   
     3     2     3 1   
     4     2     4 2   
     5     3    22 1   
     6     3    23 1   
     7     4     5 1   
     8     4    13 1   
     9     5     6 1   
    10     5    12 2   
    11     6     7 ar  
    12     6    11 ar  
    13     7     8 ar  
    14     7    24 1   
    15     8     9 ar  
    16     8    25 1   
    17     9    10 ar  
    18     9    26 1   
    19    10    11 ar  
    20    10    27 1   
    21    11    28 1   
    22    13    14 1   
    23    14    15 1   
    24    15    16 1   
    25    15    29 1   
    26    16    17 ar  
    27    16    21 ar  
    28    17    18 ar  
    29    17    30 1   
    30    18    19 ar  
    31    18    31 1   
    32    19    20 ar  
    33    19    32 1   
    34    20    21 ar  
    35    20    33 1   
    36    21    34 1   
@<TRIPOS>SUBSTRUCTURE
     1 X36         1 TEMP              0 ****  ****    0 ROOT
