@<TRIPOS>MOLECULE
X36
   34    36     1     0     0
SMALL
No Charge or Current Charge


@<TRIPOS>ATOM
      1 N1           1.1940    -1.2080     0.0690 nc         1 X36      -0.804000
      2 C2          -0.0530    -1.6790     0.1770 cc         1 X36       0.694900
      3 N3          -0.0550    -2.9870     0.2910 nv         1 X36      -1.049900
      4 C4          -1.1020    -0.8210     0.1230 cd         1 X36      -0.468600
      5 C5          -2.5200    -1.2360     0.1050 c          1 X36       0.647300
      6 C6          -3.5790    -0.1640     0.0950 ca         1 X36      -0.149600
      7 C7          -4.6540    -0.2500    -0.8150 ca         1 X36      -0.075000
      8 C8          -5.6590     0.7330    -0.8260 ca         1 X36      -0.119500
      9 C9          -5.6050     1.8050     0.0790 ca         1 X36      -0.097000
     10 C10         -4.5480     1.8900     1.0010 ca         1 X36      -0.119500
     11 C11         -3.5420     0.9090     1.0140 ca         1 X36      -0.075000
     12 O12         -2.8430    -2.4180     0.0870 o          1 X36      -0.596100
     13 S13         -0.4830     0.8160    -0.0640 ss         1 X36      -0.082400
     14 C14          1.1270     0.0960    -0.0420 cd         1 X36       0.770300
     15 N15          2.2610     0.8180    -0.2340 nu         1 X36      -0.916900
     16 C16          3.6290     0.5550    -0.1160 ca         1 X36       0.296000
     17 C17          4.5300     1.4150    -0.7710 ca         1 X36      -0.145000
     18 C18          5.9180     1.2100    -0.6750 ca         1 X36      -0.083500
     19 C19          6.4170     0.1430     0.0900 ca         1 X36      -0.132000
     20 C20          5.5290    -0.7120     0.7610 ca         1 X36      -0.083500
     21 C21          4.1410    -0.5040     0.6610 ca         1 X36      -0.145000
     22 HN3          0.7830    -3.4290    -0.0600 hn         1 X36       0.517500
     23 HN3A        -0.9390    -3.4330     0.0670 hn         1 X36       0.517500
     24 H7          -4.7060    -1.0790    -1.5190 ha         1 X36       0.122500
     25 H8          -6.4800     0.6620    -1.5360 ha         1 X36       0.113500
     26 H9          -6.3830     2.5650     0.0710 ha         1 X36       0.112000
     27 H10         -4.5110     2.7150     1.7100 ha         1 X36       0.113500
     28 H11         -2.7410     0.9760     1.7470 ha         1 X36       0.122500
     29 HN15         2.0400     1.7480    -0.5750 hn         1 X36       0.507000
     30 H17          4.1560     2.2430    -1.3660 ha         1 X36       0.130000
     31 H18          6.6050     1.8770    -1.1920 ha         1 X36       0.114500
     32 H19          7.4910    -0.0170     0.1670 ha         1 X36       0.117000
     33 H20          5.9140    -1.5330     1.3620 ha         1 X36       0.114500
     34 H21          3.4740    -1.1630     1.2050 ha         1 X36       0.130000
@<TRIPOS>BOND
     1     1     2 1   
     2     1    14 2   
     3     2     3 1   
     4     2     4 2   
     5     3    22 1   
     6     3    23 1   
     7     4     5 1   
     8     4    13 1   
     9     5     6 1   
    10     5    12 2   
    11     6     7 ar  
    12     6    11 ar  
    13     7     8 ar  
    14     7    24 1   
    15     8     9 ar  
    16     8    25 1   
    17     9    10 ar  
    18     9    26 1   
    19    10    11 ar  
    20    10    27 1   
    21    11    28 1   
    22    13    14 1   
    23    14    15 1   
    24    15    16 1   
    25    15    29 1   
    26    16    17 ar  
    27    16    21 ar  
    28    17    18 ar  
    29    17    30 1   
    30    18    19 ar  
    31    18    31 1   
    32    19    20 ar  
    33    19    32 1   
    34    20    21 ar  
    35    20    33 1   
    36    21    34 1   
@<TRIPOS>SUBSTRUCTURE
     1 X36         1 TEMP              0 ****  ****    0 ROOT
