@<TRIPOS>MOLECULE
X37
   57    60     1     0     0
SMALL
No Charge or Current Charge


@<TRIPOS>ATOM
      1 N1          -2.6380    -0.7860     0.1000 nh         1 X37      -0.769300
      2 C2          -2.2250    -2.2140     0.1950 c6         1 X37       0.207800
      3 C3          -0.9230    -2.4540    -0.6050 c6         1 X37      -0.140400
      4 C4           0.2280    -1.5010    -0.1980 c6         1 X37       0.143000
      5 N5           0.6400    -1.8190     1.2320 nz         1 X37      -0.977000
      6 C9           1.4590    -1.7070    -1.1340 c3         1 X37      -0.049100
      7 C10          2.7080    -0.9270    -0.7230 ca         1 X37      -0.150300
      8 C11          3.6550    -1.5030     0.1400 ca         1 X37      -0.114500
      9 C12          4.8010    -0.7840     0.5210 ca         1 X37      -0.097500
     10 C13          5.0360     0.5280     0.0470 ca         1 X37      -0.026300
     11 C14          4.0770     1.0910    -0.8320 ca         1 X37      -0.097500
     12 C15          2.9320     0.3700    -1.2120 ca         1 X37      -0.114500
     13 C16          6.3140     1.2870     0.4950 c3         1 X37      -0.008700
     14 C17          7.5680     0.4870     0.0490 c3         1 X37      -0.087433
     15 C18          6.4200     2.7160    -0.1100 c3         1 X37      -0.087433
     16 C19          6.3140     1.4240     2.0420 c3         1 X37      -0.087433
     17 C20         -0.2830    -0.0390    -0.2490 c6         1 X37      -0.140400
     18 C21         -1.5930     0.1740     0.5450 c6         1 X37       0.207800
     19 C22         -3.9970    -0.4230     0.2240 ca         1 X37       0.409900
     20 N23         -4.8000    -1.2130     0.9710 nb         1 X37      -0.290000
     21 C24         -6.0980    -0.8340     1.0800 ca         1 X37       0.177900
     22 N25         -6.6790     0.2520     0.5150 nb         1 X37      -0.190000
     23 C26         -5.8700     1.0220    -0.2330 ca         1 X37       0.144500
     24 N27         -6.1240     2.1770    -0.9610 na         1 X37      -0.307400
     25 C29         -4.9660     2.6340    -1.6300 cc         1 X37      -0.143100
     26 C30         -3.9920     1.7170    -1.2770 cd         1 X37      -0.239200
     27 C31         -4.5430     0.7130    -0.3980 ca         1 X37      -0.236800
     28 HN5          0.9540    -2.7930     1.3460 hn         1 X37       0.504333
     29 HN5A         1.4330    -1.2350     1.5340 hn         1 X37       0.504333
     30 HN5B        -0.1070    -1.6760     1.9230 hn         1 X37       0.504333
     31 HN27        -7.0350     2.6230    -1.0040 hn         1 X37       0.376000
     32 H2          -2.0820    -2.5070     1.2460 h1         1 X37       0.075200
     33 H2A         -3.0070    -2.8700    -0.2170 h1         1 X37       0.075200
     34 H3          -0.6130    -3.5010    -0.4930 hc         1 X37       0.089450
     35 H3A         -1.1470    -2.3180    -1.6720 hc         1 X37       0.089450
     36 H9           1.7060    -2.7750    -1.1790 hc         1 X37       0.084700
     37 H9A          1.1850    -1.4410    -2.1630 hc         1 X37       0.084700
     38 H11          3.5110    -2.5130     0.5180 ha         1 X37       0.109000
     39 H12          5.5100    -1.2610     1.1920 ha         1 X37       0.132000
     40 H14          4.1970     2.0910    -1.2370 ha         1 X37       0.132000
     41 H15          2.2150     0.8290    -1.8890 ha         1 X37       0.109000
     42 H17          7.5700     0.3450    -1.0380 hc         1 X37       0.042478
     43 H17A         8.4900     1.0160     0.3230 hc         1 X37       0.042478
     44 H17B         7.6050    -0.5030     0.5180 hc         1 X37       0.042478
     45 H18          5.5690     3.3380     0.1920 hc         1 X37       0.042478
     46 H18A         7.3330     3.2190     0.2310 hc         1 X37       0.042478
     47 H18B         6.4550     2.6800    -1.2060 hc         1 X37       0.042478
     48 H19          6.3370     0.4460     2.5360 hc         1 X37       0.042478
     49 H19A         7.1900     1.9880     2.3860 hc         1 X37       0.042478
     50 H19B         5.4160     1.9540     2.3820 hc         1 X37       0.042478
     51 H20          0.4810     0.6500     0.1320 hc         1 X37       0.089450
     52 H20A        -0.4610     0.2500    -1.2940 hc         1 X37       0.089450
     53 H21         -1.9250     1.2130     0.4050 h1         1 X37       0.075200
     54 H21A        -1.4000     0.0530     1.6210 h1         1 X37       0.075200
     55 H24         -6.7410    -1.4700     1.6860 h5         1 X37       0.059100
     56 H29         -4.9380     3.5160    -2.2690 h4         1 X37       0.229000
     57 H30         -2.9650     1.7450    -1.6350 ha         1 X37       0.196000
@<TRIPOS>BOND
     1     1     2 1   
     2     1    18 1   
     3     1    19 1   
     4     2     3 1   
     5     2    32 1   
     6     2    33 1   
     7     3     4 1   
     8     3    34 1   
     9     3    35 1   
    10     4     5 1   
    11     4     6 1   
    12     4    17 1   
    13     5    28 1   
    14     5    29 1   
    15     5    30 1   
    16     6     7 1   
    17     6    36 1   
    18     6    37 1   
    19     7     8 ar  
    20     7    12 ar  
    21     8     9 ar  
    22     8    38 1   
    23     9    10 ar  
    24     9    39 1   
    25    10    11 ar  
    26    10    13 1   
    27    11    12 ar  
    28    11    40 1   
    29    12    41 1   
    30    13    14 1   
    31    13    15 1   
    32    13    16 1   
    33    14    42 1   
    34    14    43 1   
    35    14    44 1   
    36    15    45 1   
    37    15    46 1   
    38    15    47 1   
    39    16    48 1   
    40    16    49 1   
    41    16    50 1   
    42    17    18 1   
    43    17    51 1   
    44    17    52 1   
    45    18    53 1   
    46    18    54 1   
    47    19    20 ar  
    48    19    27 ar  
    49    20    21 ar  
    50    21    22 ar  
    51    21    55 1   
    52    22    23 ar  
    53    23    24 1   
    54    23    27 ar  
    55    24    25 1   
    56    24    31 1   
    57    25    26 2   
    58    25    56 1   
    59    26    27 1   
    60    26    57 1   
@<TRIPOS>SUBSTRUCTURE
     1 X37         1 TEMP              0 ****  ****    0 ROOT
