@<TRIPOS>MOLECULE
X37
   57    60     1     0     0
SMALL
bcc


@<TRIPOS>ATOM
      1 N1          -2.6920    -0.8880     0.9770 nh         1 X37      -0.769300
      2 C2          -2.2980    -2.2850     1.0100 c6         1 X37       0.207800
      3 C3          -1.1270    -2.5150     0.0550 c6         1 X37      -0.140400
      4 C4           0.0540    -1.5730     0.3020 c6         1 X37       0.171200
      5 N5           0.7220    -2.0040     1.5840 nz         1 X37      -0.839600
      6 C9           1.0850    -1.7170    -0.8290 c3         1 X37      -0.049100
      7 C10          2.3520    -0.9300    -0.6320 ca         1 X37      -0.150300
      8 C11          3.4600    -1.5000    -0.0060 ca         1 X37      -0.132500
      9 C12          4.6160    -0.7670     0.2100 ca         1 X37      -0.115500
     10 C13          4.7230     0.5650    -0.1960 ca         1 X37      -0.026300
     11 C14          3.6190     1.1220    -0.8370 ca         1 X37      -0.115500
     12 C15          2.4580     0.3910    -1.0520 ca         1 X37      -0.132500
     13 C16          6.0100     1.3390     0.0650 c3         1 X37      -0.008700
     14 C17          7.1770     0.6450    -0.6500 c3         1 X37      -0.087433
     15 C18          5.9320     2.7810    -0.4360 c3         1 X37      -0.087433
     16 C19          6.2810     1.3660     1.5750 c3         1 X37      -0.087433
     17 C20         -0.4180    -0.1290     0.4850 c6         1 X37      -0.140400
     18 C21         -1.6190    -0.0300     1.4210 c6         1 X37       0.207800
     19 C22         -3.6950    -0.4730     0.1580 ca         1 X37       0.738200
     20 N23         -4.5820    -1.4030    -0.2080 nb         1 X37      -0.816000
     21 C24         -5.6250    -1.0690    -0.9580 ca         1 X37       0.703900
     22 N25         -5.9290     0.1210    -1.4290 nb         1 X37      -0.716000
     23 C26         -5.0310     1.0460    -1.0890 ca         1 X37       0.472800
     24 N27         -5.0670     2.3400    -1.4770 na         1 X37      -0.257100
     25 C29         -3.9700     2.9930    -0.9870 cc         1 X37      -0.093100
     26 C30         -3.2080     2.1260    -0.2640 cd         1 X37      -0.189200
     27 C31         -3.8760     0.8550    -0.3050 ca         1 X37      -0.367400
     28 HN5          1.0570    -2.9670     1.5350 hn         1 X37       0.449133
     29 HN5A         1.5270    -1.4170     1.8140 hn         1 X37       0.449133
     30 HN5B         0.1000    -1.9640     2.3920 hn         1 X37       0.449133
     31 HN27        -5.7840     2.7490    -2.0540 hn         1 X37       0.325700
     32 H2          -2.0360    -2.5460     2.0400 h1         1 X37       0.075200
     33 H2A         -3.1340    -2.9180     0.7290 h1         1 X37       0.075200
     34 H3          -0.7940    -3.5550     0.1080 hc         1 X37       0.089450
     35 H3A         -1.4700    -2.3490    -0.9690 hc         1 X37       0.089450
     36 H9           1.3170    -2.7780    -0.9550 hc         1 X37       0.084700
     37 H9A          0.5840    -1.4030    -1.7460 hc         1 X37       0.084700
     38 H11          3.4320    -2.5390     0.3060 ha         1 X37       0.127000
     39 H12          5.4470    -1.2560     0.7020 ha         1 X37       0.150000
     40 H14          3.6460     2.1460    -1.1850 ha         1 X37       0.150000
     41 H15          1.6270     0.8630    -1.5630 ha         1 X37       0.127000
     42 H17          7.0110     0.6060    -1.7280 hc         1 X37       0.042478
     43 H17A         8.1050     1.1940    -0.4740 hc         1 X37       0.042478
     44 H17B         7.3280    -0.3750    -0.2970 hc         1 X37       0.042478
     45 H18          5.1340     3.3440     0.0530 hc         1 X37       0.042478
     46 H18A         6.8710     3.2930    -0.2190 hc         1 X37       0.042478
     47 H18B         5.7730     2.8350    -1.5150 hc         1 X37       0.042478
     48 H19          6.4050     0.3640     1.9870 hc         1 X37       0.042478
     49 H19A         7.1970     1.9210     1.7870 hc         1 X37       0.042478
     50 H19B         5.4650     1.8510     2.1140 hc         1 X37       0.042478
     51 H20          0.3960     0.5020     0.8480 hc         1 X37       0.089450
     52 H20A        -0.7010     0.2560    -0.4980 hc         1 X37       0.089450
     53 H21         -1.9520     0.9960     1.5210 h1         1 X37       0.075200
     54 H21A        -1.3530    -0.3340     2.4390 h1         1 X37       0.075200
     55 H24         -6.3030    -1.8790    -1.2060 h5         1 X37       0.059100
     56 H29         -3.8090     4.0370    -1.1970 h4         1 X37       0.179000
     57 H30         -2.2820     2.3960     0.2130 ha         1 X37       0.146000
@<TRIPOS>BOND
     1     1     2 1   
     2     1    18 1   
     3     1    19 1   
     4     2     3 1   
     5     2    32 1   
     6     2    33 1   
     7     3     4 1   
     8     3    34 1   
     9     3    35 1   
    10     4     5 1   
    11     4     6 1   
    12     4    17 1   
    13     5    28 1   
    14     5    29 1   
    15     5    30 1   
    16     6     7 1   
    17     6    36 1   
    18     6    37 1   
    19     7     8 ar  
    20     7    12 ar  
    21     8     9 ar  
    22     8    38 1   
    23     9    10 ar  
    24     9    39 1   
    25    10    11 ar  
    26    10    13 1   
    27    11    12 ar  
    28    11    40 1   
    29    12    41 1   
    30    13    14 1   
    31    13    15 1   
    32    13    16 1   
    33    14    42 1   
    34    14    43 1   
    35    14    44 1   
    36    15    45 1   
    37    15    46 1   
    38    15    47 1   
    39    16    48 1   
    40    16    49 1   
    41    16    50 1   
    42    17    18 1   
    43    17    51 1   
    44    17    52 1   
    45    18    53 1   
    46    18    54 1   
    47    19    20 ar  
    48    19    27 ar  
    49    20    21 ar  
    50    21    22 ar  
    51    21    55 1   
    52    22    23 ar  
    53    23    24 1   
    54    23    27 ar  
    55    24    25 1   
    56    24    31 1   
    57    25    26 2   
    58    25    56 1   
    59    26    27 1   
    60    26    57 1   
@<TRIPOS>SUBSTRUCTURE
     1 X37         1 TEMP              0 ****  ****    0 ROOT
