@<TRIPOS>MOLECULE
X38
   72    74     1     0     0
SMALL
No Charge or Current Charge


@<TRIPOS>ATOM
      1 C02         17.1380     9.7510    11.3090 c          1 X38       0.614600
      2 C04         14.9750     8.4180    11.3740 c3         1 X38       0.034700
      3 C05         14.7700     7.0490    10.6520 c          1 X38       0.583100
      4 C08         13.6590     9.1880    11.7170 c3         1 X38      -0.052400
      5 C09         13.2150     9.1530    13.2060 c3         1 X38      -0.215400
      6 C10         12.4630     7.8590    13.5370 c          1 X38       0.709000
      7 C13         15.8190     9.7860     9.3910 c          1 X38       0.590600
      8 C14         17.0430    10.6090     9.1510 ca         1 X38      -0.070600
      9 C15         17.8240    10.5890    10.3000 ca         1 X38      -0.254600
     10 C16         19.0360    11.2720    10.3810 ca         1 X38       0.407000
     11 C18         20.9850    12.0290    11.8820 c3         1 X38       0.229800
     12 C19         21.6510    11.5780    13.2100 c3         1 X38       0.140600
     13 C21         21.2080    11.3040    15.5760 c3         1 X38       0.122600
     14 C22         20.1970    11.6740    16.6990 c3         1 X38       0.166600
     15 C24         18.6630     9.8280    16.1530 c3         1 X38       0.126600
     16 C25         17.1790     9.6050    15.8030 c3         1 X38       0.108000
     17 C27         16.5590     7.1690    15.5210 c          1 X38       0.619700
     18 C28         16.4530     6.0340    14.5230 ca         1 X38      -0.068600
     19 C29         17.1090     6.0720    13.2690 ca         1 X38      -0.085000
     20 C30         16.9480     5.0260    12.3430 ca         1 X38      -0.022000
     21 C31         16.1290     3.9240    12.6550 ca         1 X38      -0.266500
     22 C36         15.4970     3.8610    13.9120 ca         1 X38      -0.022000
     23 C37         15.6680     4.9030    14.8390 ca         1 X38      -0.085000
     24 C39         19.4540    11.9970     9.2440 ca         1 X38      -0.199000
     25 C40         18.6620    12.0260     8.0700 ca         1 X38      -0.052000
     26 C41         17.4390    11.3260     8.0140 ca         1 X38      -0.120000
     27 N03         15.9590     9.3200    10.7030 n          1 X38      -0.359400
     28 N06         13.9950     6.1380    11.2720 nt         1 X38      -0.601000
     29 N17         19.7960    11.2170    11.5440 nu         1 X38      -0.960200
     30 N26         16.9810     8.3810    15.0210 ns         1 X38      -0.487900
     31 N33         14.5790     3.1860    10.6020 n8         1 X38      -1.021100
     32 O01         17.5290     9.4760    12.4340 o          1 X38      -0.567000
     33 O07         15.3000     6.7480     9.5940 o          1 X38      -0.665100
     34 O11         13.1210     6.8900    13.8700 o          1 X38      -0.738500
     35 O12         11.2580     7.8300    13.3510 o          1 X38      -0.738500
     36 O20         20.7440    11.8110    14.3080 os         1 X38      -0.452000
     37 O23         18.8520    11.2380    16.3790 os         1 X38      -0.447000
     38 O34         15.3430     1.4130    12.0700 o          1 X38      -0.569500
     39 O35         16.9250     2.6020    10.4470 o          1 X38      -0.569500
     40 O38         16.2990     7.0270    16.7090 o          1 X38      -0.618100
     41 O42         14.8780     9.6070     8.6300 o          1 X38      -0.480000
     42 S32         15.8560     2.6280    11.4420 sy         1 X38       1.161600
     43 H041        15.4180     8.1280    12.3330 h1         1 X38       0.094700
     44 H082        13.8020    10.2450    11.4570 hc         1 X38       0.047700
     45 H081        12.8430     8.8410    11.0710 hc         1 X38       0.047700
     46 H091        14.1280     9.2370    13.8090 hc         1 X38       0.033700
     47 H092        12.5390    10.0070    13.3310 hc         1 X38       0.033700
     48 H182        20.7120    13.0900    11.9550 h1         1 X38       0.045700
     49 H181        21.7340    11.9340    11.0830 h1         1 X38       0.045700
     50 H192        21.9110    10.5140    13.1370 h1         1 X38       0.033700
     51 H191        22.5790    12.1450    13.3550 h1         1 X38       0.033700
     52 H211        21.3410    10.2150    15.5360 h1         1 X38       0.025200
     53 H212        22.1820    11.7440    15.8280 h1         1 X38       0.025200
     54 H221        20.2120    12.7620    16.8390 h1         1 X38       0.048200
     55 H222        20.5310    11.2190    17.6400 h1         1 X38       0.048200
     56 H241        18.9340     9.2370    17.0380 h1         1 X38       0.025200
     57 H242        19.2720     9.4890    15.3050 h1         1 X38       0.025200
     58 H251        16.8240    10.4500    15.1980 h1         1 X38       0.077200
     59 H252        16.5810     9.5750    16.7230 h1         1 X38       0.077200
     60 H291        17.7540     6.9020    12.9970 ha         1 X38       0.135500
     61 H301        17.4480     5.0860    11.3780 ha         1 X38       0.133500
     62 H361        14.8590     3.0180    14.1700 ha         1 X38       0.133500
     63 H371        15.1550     4.8470    15.7970 ha         1 X38       0.135500
     64 H391        20.3920    12.5420     9.2580 ha         1 X38       0.108000
     65 H401        19.0000    12.5920     7.2040 ha         1 X38       0.106000
     66 H411        16.8240    11.3420     7.1160 ha         1 X38       0.133000
     67 H061        13.9730     5.1940    10.9080 hn         1 X38       0.346000
     68 H062        13.6310     6.3310    12.2000 hn         1 X38       0.346000
     69 H171        19.3450    10.7270    12.3230 hn         1 X38       0.527000
     70 H261        17.1580     8.4390    14.0230 hn         1 X38       0.343500
     71 H331        14.9540     3.1090     9.6590 hn         1 X38       0.479000
     72 H1          13.9730     2.3700    10.6550 hn         1 X38       0.479000
@<TRIPOS>BOND
     1     1     9 1   
     2     1    27 1   
     3     1    32 2   
     4     2     3 1   
     5     2     4 1   
     6     2    27 1   
     7     2    43 1   
     8     3    28 1   
     9     3    33 2   
    10     4     5 1   
    11     4    44 1   
    12     4    45 1   
    13     5     6 1   
    14     5    46 1   
    15     5    47 1   
    16     6    34 1   
    17     6    35 1   
    18     7     8 1   
    19     7    27 1   
    20     7    41 2   
    21     8     9 ar  
    22     8    26 ar  
    23     9    10 ar  
    24    10    24 ar  
    25    10    29 1   
    26    11    12 1   
    27    11    29 1   
    28    11    48 1   
    29    11    49 1   
    30    12    36 1   
    31    12    50 1   
    32    12    51 1   
    33    13    14 1   
    34    13    36 1   
    35    13    52 1   
    36    13    53 1   
    37    14    37 1   
    38    14    54 1   
    39    14    55 1   
    40    15    16 1   
    41    15    37 1   
    42    15    56 1   
    43    15    57 1   
    44    16    30 1   
    45    16    58 1   
    46    16    59 1   
    47    17    18 1   
    48    17    30 1   
    49    17    40 2   
    50    18    19 ar  
    51    18    23 ar  
    52    19    20 ar  
    53    19    60 1   
    54    20    21 ar  
    55    20    61 1   
    56    21    22 ar  
    57    21    42 1   
    58    22    23 ar  
    59    22    62 1   
    60    23    63 1   
    61    24    25 ar  
    62    24    64 1   
    63    25    26 ar  
    64    25    65 1   
    65    26    66 1   
    66    28    67 1   
    67    28    68 1   
    68    29    69 1   
    69    30    70 1   
    70    31    42 1   
    71    31    71 1   
    72    31    72 1   
    73    38    42 2   
    74    39    42 2   
@<TRIPOS>SUBSTRUCTURE
     1 X38         1 TEMP              0 ****  ****    0 ROOT
