@<TRIPOS>MOLECULE
X39
   48    51     1     0     0
SMALL
bcc


@<TRIPOS>ATOM
      1 N1          -2.7700     0.5280     1.1460 nh         1 X39      -0.759300
      2 C2          -1.6530     0.2680     2.0380 c6         1 X39       0.208800
      3 C3          -0.3580     0.1500     1.2350 c6         1 X39      -0.118900
      4 C4          -0.1050     1.3770     0.3330 c6         1 X39       0.101200
      5 N5           0.3120     2.4910     1.1720 n8         1 X39      -0.921800
      6 C9          -1.3710     1.6770    -0.4920 c6         1 X39      -0.118900
      7 C10         -2.5850     1.7690     0.4230 c6         1 X39       0.208800
      8 C11          1.0470     0.9870    -0.6070 c          1 X39       0.666100
      9 O12          0.8670     0.3040    -1.6060 o          1 X39      -0.599100
     10 N13          2.2560     1.4030    -0.2130 ns         1 X39      -0.565900
     11 C14          3.4640     1.0180    -0.8920 c3         1 X39       0.157300
     12 C15          3.8490    -0.4290    -0.6870 ca         1 X39      -0.094300
     13 C16          3.5270    -1.1150     0.4780 ca         1 X39      -0.110000
     14 C17          3.9190    -2.4330     0.6660 ca         1 X39      -0.119000
     15 C18          4.6490    -3.0680    -0.3260 ca         1 X39       0.029400
     16 CL1          5.1420    -4.7170    -0.1020 cl         1 X39      -0.116400
     17 C20          4.9880    -2.4070    -1.4960 ca         1 X39      -0.119000
     18 C21          4.5820    -1.0910    -1.6660 ca         1 X39      -0.110000
     19 C22         -3.5390    -0.4920     0.6900 ca         1 X39       0.761200
     20 N23         -3.5360    -1.6130     1.4210 nb         1 X39      -0.826000
     21 C24         -4.3060    -2.6360     1.0740 ca         1 X39       0.704900
     22 N25         -5.1230    -2.7200     0.0460 nb         1 X39      -0.752000
     23 C26         -5.1100    -1.6140    -0.7010 ca         1 X39       0.469800
     24 N27         -5.8170    -1.4430    -1.8400 na         1 X39      -0.265100
     25 C29         -5.5360    -0.2130    -2.3690 cc         1 X39      -0.127100
     26 C30         -4.6430     0.4330    -1.5690 cd         1 X39      -0.159200
     27 C31         -4.3530    -0.4480    -0.4730 ca         1 X39      -0.369400
     28 H21C        -1.5970     1.0820     2.7650 h1         1 X39       0.062950
     29 H22C        -1.8250    -0.6440     2.6000 h1         1 X39       0.062950
     30 H101        -3.4860     2.0410    -0.1150 h1         1 X39       0.062950
     31 H102        -2.4410     2.5610     1.1630 h1         1 X39       0.062950
     32 H31C         0.4840     0.0240     1.9210 hc         1 X39       0.071700
     33 H32C        -0.4110    -0.7500     0.6190 hc         1 X39       0.071700
     34 H51N         0.1960     3.3730     0.6880 hn         1 X39       0.355800
     35 H52N        -0.2420     2.5500     2.0150 hn         1 X39       0.355800
     36 H91C        -1.2440     2.6150    -1.0400 hc         1 X39       0.071700
     37 H92C        -1.5360     0.8920    -1.2320 hc         1 X39       0.071700
     38 H13          2.2880     1.9660     0.6240 hn         1 X39       0.344500
     39 H141         3.3730     1.2180    -1.9610 h1         1 X39       0.057700
     40 H142         4.2630     1.6620    -0.5210 h1         1 X39       0.057700
     41 H16          2.9570    -0.6260     1.2580 ha         1 X39       0.133500
     42 H21          4.8420    -0.5800    -2.5850 ha         1 X39       0.133500
     43 H17          3.6560    -2.9550     1.5760 ha         1 X39       0.146500
     44 H20          5.5530    -2.9090    -2.2690 ha         1 X39       0.146500
     45 H24         -4.2490    -3.5060     1.7210 h5         1 X39       0.044100
     46 H27         -6.4420    -2.1240    -2.2390 hn         1 X39       0.311700
     47 H29         -5.9950     0.1110    -3.2880 h4         1 X39       0.167000
     48 H30         -4.2530     1.4140    -1.7770 ha         1 X39       0.151000
@<TRIPOS>BOND
     1     1     2 1   
     2     1     7 1   
     3     1    19 1   
     4     2     3 1   
     5     2    28 1   
     6     2    29 1   
     7     3     4 1   
     8     3    32 1   
     9     3    33 1   
    10     4     5 1   
    11     4     6 1   
    12     4     8 1   
    13     5    34 1   
    14     5    35 1   
    15     6     7 1   
    16     6    36 1   
    17     6    37 1   
    18     7    30 1   
    19     7    31 1   
    20     8     9 2   
    21     8    10 1   
    22    10    11 1   
    23    10    38 1   
    24    11    12 1   
    25    11    39 1   
    26    11    40 1   
    27    12    13 ar  
    28    12    18 ar  
    29    13    14 ar  
    30    13    41 1   
    31    14    15 ar  
    32    14    43 1   
    33    15    16 1   
    34    15    17 ar  
    35    17    18 ar  
    36    17    44 1   
    37    18    42 1   
    38    19    20 ar  
    39    19    27 ar  
    40    20    21 ar  
    41    21    22 ar  
    42    21    45 1   
    43    22    23 ar  
    44    23    24 1   
    45    23    27 ar  
    46    24    25 1   
    47    24    46 1   
    48    25    26 2   
    49    25    47 1   
    50    26    27 1   
    51    26    48 1   
@<TRIPOS>SUBSTRUCTURE
     1 X39         1 TEMP              0 ****  ****    0 ROOT
