@<TRIPOS>MOLECULE
X39
   48    51     1     0     0
SMALL
No Charge or Current Charge


@<TRIPOS>ATOM
      1 N1          -2.5980     0.3150     0.6940 nh         1 X39      -0.759300
      2 C2          -1.8420     0.5340     1.9570 c6         1 X39       0.208800
      3 C3          -0.3500     0.8120     1.6440 c6         1 X39      -0.118900
      4 C4          -0.1370     2.0410     0.6970 c6         1 X39       0.101200
      5 N5          -0.6070     3.2920     1.3900 n8         1 X39      -1.032200
      6 C9          -1.0140     1.7750    -0.5650 c6         1 X39      -0.118900
      7 C10         -2.4960     1.4750    -0.2290 c6         1 X39       0.208800
      8 C11          1.3860     2.1710     0.2350 c          1 X39       0.599100
      9 O12          1.9620     3.2540     0.1930 o          1 X39      -0.599100
     10 N13          2.0630     1.0030    -0.0440 ns         1 X39      -0.498900
     11 C14          3.4650     0.9370    -0.4440 c3         1 X39       0.157300
     12 C15          3.8880    -0.5000    -0.7010 ca         1 X39      -0.094300
     13 C16          4.4000    -1.2870     0.3500 ca         1 X39      -0.092000
     14 C17          4.7850    -2.6190     0.1140 ca         1 X39      -0.101000
     15 C18          4.6570    -3.1690    -1.1720 ca         1 X39       0.121000
     16 Cl1          5.1370    -4.8360    -1.4660 cl         1 X39      -0.208000
     17 C20          4.1440    -2.3910    -2.2230 ca         1 X39      -0.101000
     18 C21          3.7600    -1.0590    -1.9880 ca         1 X39      -0.092000
     19 C22         -3.7790    -0.4580     0.6870 ca         1 X39       0.432900
     20 N23         -4.4880    -0.5520     1.8350 nb         1 X39      -0.300000
     21 C24         -5.6210    -1.2950     1.7930 ca         1 X39       0.178900
     22 N25         -6.1200    -1.9600     0.7230 nb         1 X39      -0.226000
     23 C26         -5.4000    -1.8640    -0.4090 ca         1 X39       0.141500
     24 N27         -5.5980    -2.4190    -1.6660 na         1 X39      -0.315400
     25 C29         -4.5560    -2.0710    -2.5550 cc         1 X39      -0.177100
     26 C30         -3.7170    -1.2770    -1.7950 cd         1 X39      -0.209200
     27 C31         -4.2400    -1.1340    -0.4560 ca         1 X39      -0.238800
     28 H21C        -2.2700     1.3770     2.5210 h1         1 X39       0.062950
     29 H22C        -1.9000    -0.3560     2.6010 h1         1 X39       0.062950
     30 H101        -3.0410     1.2860    -1.1650 h1         1 X39       0.062950
     31 H102        -2.9560     2.3630     0.2310 h1         1 X39       0.062950
     32 H31C         0.1980     0.9610     2.5840 hc         1 X39       0.071700
     33 H32C         0.0620    -0.1020     1.1980 hc         1 X39       0.071700
     34 H51N        -0.0600     3.4160     2.2500 hn         1 X39       0.411000
     35 H52N        -0.3060     4.0970     0.8260 hn         1 X39       0.411000
     36 H91C        -0.9660     2.6380    -1.2430 hc         1 X39       0.071700
     37 H92C        -0.6070     0.9270    -1.1320 hc         1 X39       0.071700
     38 H13          1.5410     0.1380     0.0170 hn         1 X39       0.344500
     39 H141         3.6070     1.5360    -1.3540 h1         1 X39       0.057700
     40 H142         4.0850     1.3730     0.3500 h1         1 X39       0.057700
     41 H16          4.5000    -0.8680     1.3490 ha         1 X39       0.115500
     42 H21          3.3610    -0.4620    -2.8060 ha         1 X39       0.115500
     43 H17          5.1800    -3.2250     0.9260 ha         1 X39       0.128500
     44 H20          4.0450    -2.8200    -3.2170 ha         1 X39       0.128500
     45 H24         -6.1910    -1.3660     2.7180 h5         1 X39       0.044100
     46 H27         -6.3930    -3.0050    -1.9000 hn         1 X39       0.362000
     47 H29         -4.5000    -2.4050    -3.5900 h4         1 X39       0.217000
     48 H30         -2.7870    -0.8420    -2.1560 ha         1 X39       0.201000
@<TRIPOS>BOND
     1     1     2 1   
     2     1     7 1   
     3     1    19 1   
     4     2     3 1   
     5     2    28 1   
     6     2    29 1   
     7     3     4 1   
     8     3    32 1   
     9     3    33 1   
    10     4     5 1   
    11     4     6 1   
    12     4     8 1   
    13     5    34 1   
    14     5    35 1   
    15     6     7 1   
    16     6    36 1   
    17     6    37 1   
    18     7    30 1   
    19     7    31 1   
    20     8     9 2   
    21     8    10 1   
    22    10    11 1   
    23    10    38 1   
    24    11    12 1   
    25    11    39 1   
    26    11    40 1   
    27    12    13 ar  
    28    12    18 ar  
    29    13    14 ar  
    30    13    41 1   
    31    14    15 ar  
    32    14    43 1   
    33    15    16 1   
    34    15    17 ar  
    35    17    18 ar  
    36    17    44 1   
    37    18    42 1   
    38    19    20 ar  
    39    19    27 ar  
    40    20    21 ar  
    41    21    22 ar  
    42    21    45 1   
    43    22    23 ar  
    44    23    24 1   
    45    23    27 ar  
    46    24    25 1   
    47    24    46 1   
    48    25    26 2   
    49    25    47 1   
    50    26    27 1   
    51    26    48 1   
@<TRIPOS>SUBSTRUCTURE
     1 X39         1 TEMP              0 ****  ****    0 ROOT
