@<TRIPOS>MOLECULE
X3A
   33    35     1     0     0
SMALL
No Charge or Current Charge


@<TRIPOS>ATOM
      1 N1           1.2280    -1.1930    -0.1050 nc         1 X3A      -0.805000
      2 C2          -0.0250    -1.6570    -0.0600 cc         1 X3A       0.698900
      3 N3          -0.0400    -2.9700    -0.0120 nv         1 X3A      -1.046900
      4 C4          -1.0650    -0.7850    -0.0540 cd         1 X3A      -0.471600
      5 C5          -2.4860    -1.1780     0.0200 c          1 X3A       0.652300
      6 C6          -3.5200    -0.1010     0.0520 ca         1 X3A      -0.203600
      7 C7          -4.6220    -0.2060    -0.8090 ca         1 X3A       0.378900
      8 N8          -5.6220     0.7080    -0.8470 nb         1 X3A      -0.671000
      9 C9          -5.5480     1.7610     0.0000 ca         1 X3A       0.346900
     10 C10         -4.4910     1.9340     0.9090 ca         1 X3A      -0.173000
     11 C11         -3.4560     0.9870     0.9460 ca         1 X3A      -0.049000
     12 O12         -2.8310    -2.3520     0.0630 o          1 X3A      -0.592100
     13 S13         -0.4280     0.8500    -0.1910 ss         1 X3A      -0.091400
     14 C14          1.1750     0.1160    -0.1480 cd         1 X3A       0.776300
     15 N15          2.3190     0.8370    -0.2690 nu         1 X3A      -0.914900
     16 C16          3.6810     0.5570    -0.1240 ca         1 X3A       0.294000
     17 C17          4.6070     1.4410    -0.7070 ca         1 X3A      -0.143500
     18 C18          5.9900     1.2190    -0.5810 ca         1 X3A      -0.083500
     19 C19          6.4580     0.1100     0.1420 ca         1 X3A      -0.130000
     20 C20          5.5440    -0.7700     0.7420 ca         1 X3A      -0.083500
     21 C21          4.1620    -0.5450     0.6120 ca         1 X3A      -0.143500
     22 HN3          0.8170    -3.3820     0.3300 hn         1 X3A       0.518000
     23 HN3A        -0.9130    -3.3860     0.2940 hn         1 X3A       0.518000
     24 H7          -4.7110    -1.0420    -1.5020 h4         1 X3A       0.032100
     25 H9          -6.3630     2.4810    -0.0470 h4         1 X3A       0.018100
     26 H10         -4.4830     2.7910     1.5770 ha         1 X3A       0.124000
     27 H11         -2.6380     1.0900     1.6560 ha         1 X3A       0.127000
     28 HN15         2.1130     1.7850    -0.5680 hn         1 X3A       0.508000
     29 H17          4.2570     2.3020    -1.2700 ha         1 X3A       0.130500
     30 H18          6.6970     1.9060    -1.0430 ha         1 X3A       0.115500
     31 H19          7.5280    -0.0630     0.2430 ha         1 X3A       0.118000
     32 H20          5.9050    -1.6240     1.3120 ha         1 X3A       0.115500
     33 H21          3.4740    -1.2250     1.1020 ha         1 X3A       0.130500
@<TRIPOS>BOND
     1     1     2 1   
     2     1    14 2   
     3     2     3 1   
     4     2     4 2   
     5     3    22 1   
     6     3    23 1   
     7     4     5 1   
     8     4    13 1   
     9     5     6 1   
    10     5    12 2   
    11     6     7 ar  
    12     6    11 ar  
    13     7     8 ar  
    14     7    24 1   
    15     8     9 ar  
    16     9    10 ar  
    17     9    25 1   
    18    10    11 ar  
    19    10    26 1   
    20    11    27 1   
    21    13    14 1   
    22    14    15 1   
    23    15    16 1   
    24    15    28 1   
    25    16    17 ar  
    26    16    21 ar  
    27    17    18 ar  
    28    17    29 1   
    29    18    19 ar  
    30    18    30 1   
    31    19    20 ar  
    32    19    31 1   
    33    20    21 ar  
    34    20    32 1   
    35    21    33 1   
@<TRIPOS>SUBSTRUCTURE
     1 X3A         1 TEMP              0 ****  ****    0 ROOT
