@<TRIPOS>MOLECULE
X3A
   33    35     1     0     0
SMALL
abcg2


@<TRIPOS>ATOM
      1 N1           1.2430    -1.2340     0.1930 nc         1 X3A      -0.805000
      2 C2          -0.0010    -1.7630     0.2940 cc         1 X3A       0.698900
      3 N3          -0.1260    -3.0630     0.5350 nv         1 X3A      -1.046900
      4 C4          -1.0660    -0.8630     0.1290 cd         1 X3A      -0.471600
      5 C5          -2.4460    -1.1870     0.1620 c          1 X3A       0.652300
      6 C6          -3.4410    -0.0790     0.0430 ca         1 X3A      -0.203600
      7 C7          -4.5120    -0.2130    -0.8380 ca         1 X3A       0.378900
      8 N8          -5.4570     0.7020    -0.9880 nb         1 X3A      -0.671000
      9 C9          -5.3890     1.7960    -0.2360 ca         1 X3A       0.346900
     10 C10         -4.3820     2.0210     0.6890 ca         1 X3A      -0.173000
     11 C11         -3.3870     1.0670     0.8280 ca         1 X3A      -0.049000
     12 O12         -2.8550    -2.3470     0.2710 o          1 X3A      -0.592100
     13 S13         -0.3980     0.7280    -0.2060 ss         1 X3A      -0.091400
     14 C14          1.1950     0.0420    -0.0650 cd         1 X3A       0.776300
     15 N15          2.2570     0.8460    -0.2240 nu         1 X3A      -0.914900
     16 C16          3.6230     0.5520    -0.1440 ca         1 X3A       0.294000
     17 C17          4.4970     1.6180    -0.3790 ca         1 X3A      -0.143500
     18 C18          5.8660     1.4280    -0.3190 ca         1 X3A      -0.083500
     19 C19          6.3900     0.1750    -0.0250 ca         1 X3A      -0.130000
     20 C20          5.5210    -0.8790     0.2070 ca         1 X3A      -0.083500
     21 C21          4.1440    -0.7070     0.1510 ca         1 X3A      -0.143500
     22 HN3          0.6910    -3.6260     0.6960 hn         1 X3A       0.518000
     23 HN3A        -1.0400    -3.4730     0.6260 hn         1 X3A       0.518000
     24 H7          -4.5930    -1.1000    -1.4590 h4         1 X3A       0.032100
     25 H9          -6.1780     2.5270    -0.3720 h4         1 X3A       0.018100
     26 H10         -4.3820     2.9200     1.2900 ha         1 X3A       0.124000
     27 H11         -2.5990     1.2070     1.5580 ha         1 X3A       0.127000
     28 HN15         2.0510     1.8130    -0.4290 hn         1 X3A       0.508000
     29 H17          4.1000     2.5990    -0.6130 ha         1 X3A       0.130500
     30 H18          6.5240     2.2670    -0.5050 ha         1 X3A       0.115500
     31 H19          7.4610     0.0260     0.0210 ha         1 X3A       0.118000
     32 H20          5.9120    -1.8620     0.4390 ha         1 X3A       0.115500
     33 H21          3.4890    -1.5440     0.3340 ha         1 X3A       0.130500
@<TRIPOS>BOND
     1     1     2 1   
     2     1    14 2   
     3     2     3 1   
     4     2     4 2   
     5     3    22 1   
     6     3    23 1   
     7     4     5 1   
     8     4    13 1   
     9     5     6 1   
    10     5    12 2   
    11     6     7 ar  
    12     6    11 ar  
    13     7     8 ar  
    14     7    24 1   
    15     8     9 ar  
    16     9    10 ar  
    17     9    25 1   
    18    10    11 ar  
    19    10    26 1   
    20    11    27 1   
    21    13    14 1   
    22    14    15 1   
    23    15    16 1   
    24    15    28 1   
    25    16    17 ar  
    26    16    21 ar  
    27    17    18 ar  
    28    17    29 1   
    29    18    19 ar  
    30    18    30 1   
    31    19    20 ar  
    32    19    31 1   
    33    20    21 ar  
    34    20    32 1   
    35    21    33 1   
@<TRIPOS>SUBSTRUCTURE
     1 X3A         1 TEMP              0 ****  ****    0 ROOT
