@<TRIPOS>MOLECULE
X3B
   17    17     1     0     0
SMALL
No Charge or Current Charge


@<TRIPOS>ATOM
      1 C02         18.9220    -2.3630    -3.8090 c6         1 X3B       0.619000
      2 C04         20.0670    -3.0850    -1.8220 c2         1 X3B       0.237200
      3 C06         19.3510    -0.7990    -1.8600 c6         1 X3B       0.165600
      4 C07         19.0870    -0.8940    -3.3690 c6         1 X3B      -0.201400
      5 C08         20.7040    -4.0960    -1.2380 c2         1 X3B      -0.395000
      6 O01         17.6420    -2.5990    -4.3000 oh         1 X3B      -0.614000
      7 O03         19.0920    -3.3000    -2.7550 os         1 X3B      -0.442100
      8 O05         20.3260    -1.7870    -1.4890 os         1 X3B      -0.374100
      9 O09         19.8500    -2.7080    -4.7900 oh         1 X3B      -0.614000
     10 H1          19.7160     0.2020    -1.5870 h1         1 X3B       0.064200
     11 H2          18.4230    -0.9930    -1.3020 h1         1 X3B       0.064200
     12 H3          19.9240    -0.4320    -3.9080 hc         1 X3B       0.080700
     13 H4          18.1980    -0.3050    -3.6270 hc         1 X3B       0.080700
     14 H5          20.4800    -5.1300    -1.4950 ha         1 X3B       0.192500
     15 H6          21.4690    -3.9210    -0.4830 ha         1 X3B       0.192500
     16 H7          17.4300    -3.4700    -3.9110 ho         1 X3B       0.471000
     17 H8          20.1060    -3.6130    -4.5280 ho         1 X3B       0.471000
@<TRIPOS>BOND
     1     1     4 1   
     2     1     6 1   
     3     1     7 1   
     4     1     9 1   
     5     2     5 2   
     6     2     7 1   
     7     2     8 1   
     8     3     4 1   
     9     3     8 1   
    10     3    10 1   
    11     3    11 1   
    12     4    12 1   
    13     4    13 1   
    14     5    14 1   
    15     5    15 1   
    16     6    16 1   
    17     9    17 1   
@<TRIPOS>SUBSTRUCTURE
     1 X3B         1 TEMP              0 ****  ****    0 ROOT
