@<TRIPOS>MOLECULE
X3B
   17    17     1     0     0
SMALL
abcg2


@<TRIPOS>ATOM
      1 C02         18.8760    -2.5110    -3.8060 c6         1 X3B       0.619000
      2 C04         20.0310    -3.1560    -1.7620 c2         1 X3B       0.237200
      3 C06         19.1130    -0.9770    -1.8610 c6         1 X3B       0.165600
      4 C07         19.2630    -1.0970    -3.3610 c6         1 X3B      -0.201400
      5 C08         20.8940    -4.0860    -1.3500 c2         1 X3B      -0.395000
      6 O01         17.5520    -2.6530    -4.1730 oh         1 X3B      -0.614000
      7 O03         19.0680    -3.4310    -2.6830 os         1 X3B      -0.442100
      8 O05         20.0140    -1.9070    -1.2300 os         1 X3B      -0.374100
      9 O09         19.5790    -2.9650    -4.9060 oh         1 X3B      -0.614000
     10 H1          19.4080     0.0050    -1.5010 h1         1 X3B       0.064200
     11 H2          18.0890    -1.1810    -1.5340 h1         1 X3B       0.064200
     12 H3          20.3030    -0.8990    -3.6280 hc         1 X3B       0.080700
     13 H4          18.6350    -0.3780    -3.8860 hc         1 X3B       0.080700
     14 H5          20.8790    -5.0660    -1.8010 ha         1 X3B       0.192500
     15 H6          21.5830    -3.8720    -0.5470 ha         1 X3B       0.192500
     16 H7          16.9830    -2.3530    -3.4510 ho         1 X3B       0.471000
     17 H8          20.5180    -2.7680    -4.7940 ho         1 X3B       0.471000
@<TRIPOS>BOND
     1     1     4 1   
     2     1     6 1   
     3     1     7 1   
     4     1     9 1   
     5     2     5 2   
     6     2     7 1   
     7     2     8 1   
     8     3     4 1   
     9     3     8 1   
    10     3    10 1   
    11     3    11 1   
    12     4    12 1   
    13     4    13 1   
    14     5    14 1   
    15     5    15 1   
    16     6    16 1   
    17     9    17 1   
@<TRIPOS>SUBSTRUCTURE
     1 X3B         1 TEMP              0 ****  ****    0 ROOT
