@<TRIPOS>MOLECULE
X3D
   99    98     1     0     0
SMALL
No Charge or Current Charge


@<TRIPOS>ATOM
      1 C17         17.4320     1.6200   -39.4820 c3         1 X3D       0.230600
      2 C12         17.3670    -3.5140   -41.9190 c3         1 X3D      -0.069400
      3 C16         18.3090     0.7380   -40.4150 c3         1 X3D       0.153300
      4 C11         18.0710    -2.8040   -43.1010 c3         1 X3D      -0.077400
      5 C28         20.3700     3.4190   -42.0360 c          1 X3D       0.609100
      6 C22         13.4670    -1.2350   -37.3480 c3         1 X3D       0.107800
      7 C21         14.4910    -0.8670   -38.4660 c3         1 X3D       0.234600
      8 C36         25.8980    -3.3020   -45.9120 c3         1 X3D      -0.077400
      9 C35         24.7600    -2.7710   -45.0120 c3         1 X3D      -0.076400
     10 C31         21.6880     1.2380   -43.9470 c3         1 X3D      -0.081400
     11 C14         17.4980    -1.5560   -40.2880 c          1 X3D       0.603100
     12 C13         16.5790    -2.5610   -40.9860 c3         1 X3D      -0.138400
     13 C10         18.8970    -3.7700   -43.9760 c3         1 X3D      -0.075400
     14 C30         21.3340     2.6970   -44.3140 c3         1 X3D      -0.063400
     15 C29         20.1130     3.2790   -43.5590 c3         1 X3D      -0.188400
     16 C32         22.8890     0.7030   -44.7580 c3         1 X3D      -0.072400
     17 C34         24.4240    -1.2890   -45.2850 c3         1 X3D      -0.073400
     18 C33         23.2740    -0.7500   -44.4060 c3         1 X3D      -0.077400
     19 C37         26.1770    -4.8070   -45.7140 c3         1 X3D      -0.075400
     20 C38         27.3210    -5.3290   -46.6050 c3         1 X3D      -0.089100
     21 C01         27.1580    -3.8770   -52.0830 c3         1 X3D      -0.088100
     22 C02         26.2200    -4.6170   -51.1110 c3         1 X3D      -0.075400
     23 C03         25.1580    -3.6940   -50.4750 c3         1 X3D      -0.075400
     24 C04         24.2240    -4.4350   -49.4950 c3         1 X3D      -0.077400
     25 C05         23.1720    -3.5110   -48.8450 c3         1 X3D      -0.073400
     26 C06         22.3120    -4.2360   -47.7880 c3         1 X3D      -0.075400
     27 C07         21.3120    -3.3010   -47.0730 c3         1 X3D      -0.076400
     28 C08         20.5530    -4.0060   -45.9290 c3         1 X3D      -0.075400
     29 C09         19.6110    -3.0640   -45.1480 c3         1 X3D      -0.074400
     30 C26         18.8250     1.5240   -41.6400 c3         1 X3D       0.154600
     31 N23         13.0160    -2.6540   -37.3950 n8         1 X3D      -0.999200
     32 O15         17.5110    -0.3500   -40.9420 os         1 X3D      -0.438100
     33 O18         17.1070     0.8960   -38.2860 os         1 X3D      -0.587400
     34 O20         14.7010     0.5530   -38.4970 os         1 X3D      -0.603400
     35 O24         15.7290     0.6820   -36.1340 o          1 X3D      -0.808500
     36 O25         15.5420     2.7470   -37.4710 o          1 X3D      -0.808500
     37 O27         19.7430     2.5360   -41.1790 os         1 X3D      -0.436100
     38 O39         21.1020     4.2940   -41.6010 o          1 X3D      -0.450000
     39 O40         18.1550    -1.8230   -39.2910 o          1 X3D      -0.493000
     40 P19         15.7510     1.2700   -37.5040 p5         1 X3D       1.389800
     41 H1          17.9830     2.5330   -39.2240 h1         1 X3D       0.036700
     42 H2          16.5260     1.9200   -40.0270 h1         1 X3D       0.036700
     43 H3          16.6770    -4.2680   -42.3180 hc         1 X3D       0.045700
     44 H4          18.1140    -4.0570   -41.3250 hc         1 X3D       0.045700
     45 H5          19.1840     0.3730   -39.8600 h1         1 X3D       0.099700
     46 H6          18.7410    -2.0260   -42.7160 hc         1 X3D       0.041200
     47 H7          17.3180    -2.3020   -43.7220 hc         1 X3D       0.041200
     48 H8          12.5830    -0.5880   -37.4480 h1         1 X3D       0.046200
     49 H9          13.9110    -1.0530   -36.3610 h1         1 X3D       0.046200
     50 H10         15.4340    -1.4000   -38.2850 h1         1 X3D       0.020200
     51 H11         14.1000    -1.1980   -39.4370 h1         1 X3D       0.020200
     52 H12         26.8140    -2.7340   -45.7050 hc         1 X3D       0.036700
     53 H13         25.6430    -3.1210   -46.9630 hc         1 X3D       0.036700
     54 H14         23.8600    -3.3770   -45.1680 hc         1 X3D       0.039200
     55 H15         25.0460    -2.8900   -43.9590 hc         1 X3D       0.039200
     56 H16         20.8180     0.5960   -44.1330 hc         1 X3D       0.044700
     57 H17         21.9180     1.1720   -42.8760 hc         1 X3D       0.044700
     58 H18         15.8450    -2.0220   -41.5950 hc         1 X3D       0.078200
     59 H19         16.0710    -3.1630   -40.2240 hc         1 X3D       0.078200
     60 H20         18.2410    -4.5560   -44.3720 hc         1 X3D       0.036700
     61 H21         19.6460    -4.2660   -43.3450 hc         1 X3D       0.036700
     62 H22         22.2070     3.3370   -44.1310 hc         1 X3D       0.047700
     63 H23         21.1330     2.7500   -45.3920 hc         1 X3D       0.047700
     64 H24         19.9460     4.2890   -43.9540 hc         1 X3D       0.065700
     65 H25         19.2410     2.6710   -43.8090 hc         1 X3D       0.065700
     66 H26         23.7570     1.3530   -44.5900 hc         1 X3D       0.034700
     67 H27         22.6490     0.7610   -45.8270 hc         1 X3D       0.034700
     68 H28         25.3210    -0.6780   -45.1200 hc         1 X3D       0.034700
     69 H29         24.1510    -1.1750   -46.3410 hc         1 X3D       0.034700
     70 H30         22.3960    -1.3950   -44.5270 hc         1 X3D       0.042200
     71 H31         23.5670    -0.8040   -43.3500 hc         1 X3D       0.042200
     72 H32         25.2660    -5.3780   -45.9350 hc         1 X3D       0.037200
     73 H33         26.4270    -4.9970   -44.6630 hc         1 X3D       0.037200
     74 H34         27.4750    -6.4020   -46.4400 hc         1 X3D       0.029700
     75 H35         27.0910    -5.1740   -47.6660 hc         1 X3D       0.029700
     76 H36         28.2590    -4.8090   -46.3750 hc         1 X3D       0.029700
     77 H37         27.8930    -4.5710   -52.5080 hc         1 X3D       0.030033
     78 H38         26.5890    -3.4320   -52.9080 hc         1 X3D       0.030033
     79 H39         27.7020    -3.0780   -51.5650 hc         1 X3D       0.030033
     80 H40         25.7190    -5.4320   -51.6490 hc         1 X3D       0.035700
     81 H41         26.8220    -5.0790   -50.3180 hc         1 X3D       0.035700
     82 H42         25.6630    -2.8790   -49.9430 hc         1 X3D       0.037200
     83 H43         24.5560    -3.2350   -51.2690 hc         1 X3D       0.037200
     84 H44         23.7110    -5.2480   -50.0250 hc         1 X3D       0.037200
     85 H45         24.8290    -4.9000   -48.7070 hc         1 X3D       0.037200
     86 H46         23.6810    -2.6620   -48.3730 hc         1 X3D       0.037700
     87 H47         22.5190    -3.0980   -49.6240 hc         1 X3D       0.037700
     88 H48         21.7640    -5.0570   -48.2660 hc         1 X3D       0.036200
     89 H49         22.9760    -4.6890   -47.0410 hc         1 X3D       0.036200
     90 H50         21.8540    -2.4390   -46.6680 hc         1 X3D       0.039200
     91 H51         20.5930    -2.9110   -47.8040 hc         1 X3D       0.039200
     92 H52         19.9710    -4.8400   -46.3400 hc         1 X3D       0.035700
     93 H53         21.2810    -4.4370   -45.2310 hc         1 X3D       0.035700
     94 H54         20.1910    -2.2190   -44.7570 hc         1 X3D       0.037700
     95 H55         18.8620    -2.6470   -45.8320 hc         1 X3D       0.037700
     96 H56         19.3260     0.8270   -42.3220 h1         1 X3D       0.037700
     97 H57         17.9680     1.9750   -42.1560 h1         1 X3D       0.037700
     98 H58         12.3130    -2.8090   -36.6620 hn         1 X3D       0.375500
     99 H59         12.4980    -2.8180   -38.2670 hn         1 X3D       0.375500
@<TRIPOS>BOND
     1     1     3 1   
     2     1    33 1   
     3     1    41 1   
     4     1    42 1   
     5     2     4 1   
     6     2    12 1   
     7     2    43 1   
     8     2    44 1   
     9     3    30 1   
    10     3    32 1   
    11     3    45 1   
    12     4    13 1   
    13     4    46 1   
    14     4    47 1   
    15     5    15 1   
    16     5    37 1   
    17     5    38 2   
    18     6     7 1   
    19     6    31 1   
    20     6    48 1   
    21     6    49 1   
    22     7    34 1   
    23     7    50 1   
    24     7    51 1   
    25     8     9 1   
    26     8    19 1   
    27     8    52 1   
    28     8    53 1   
    29     9    17 1   
    30     9    54 1   
    31     9    55 1   
    32    10    14 1   
    33    10    16 1   
    34    10    56 1   
    35    10    57 1   
    36    11    12 1   
    37    11    32 1   
    38    11    39 2   
    39    12    58 1   
    40    12    59 1   
    41    13    29 1   
    42    13    60 1   
    43    13    61 1   
    44    14    15 1   
    45    14    62 1   
    46    14    63 1   
    47    15    64 1   
    48    15    65 1   
    49    16    18 1   
    50    16    66 1   
    51    16    67 1   
    52    17    18 1   
    53    17    68 1   
    54    17    69 1   
    55    18    70 1   
    56    18    71 1   
    57    19    20 1   
    58    19    72 1   
    59    19    73 1   
    60    20    74 1   
    61    20    75 1   
    62    20    76 1   
    63    21    22 1   
    64    21    77 1   
    65    21    78 1   
    66    21    79 1   
    67    22    23 1   
    68    22    80 1   
    69    22    81 1   
    70    23    24 1   
    71    23    82 1   
    72    23    83 1   
    73    24    25 1   
    74    24    84 1   
    75    24    85 1   
    76    25    26 1   
    77    25    86 1   
    78    25    87 1   
    79    26    27 1   
    80    26    88 1   
    81    26    89 1   
    82    27    28 1   
    83    27    90 1   
    84    27    91 1   
    85    28    29 1   
    86    28    92 1   
    87    28    93 1   
    88    29    94 1   
    89    29    95 1   
    90    30    37 1   
    91    30    96 1   
    92    30    97 1   
    93    31    98 1   
    94    31    99 1   
    95    33    40 1   
    96    34    40 1   
    97    35    40 1   
    98    36    40 1   
@<TRIPOS>SUBSTRUCTURE
     1 X3D         1 TEMP              0 ****  ****    0 ROOT
