@<TRIPOS>MOLECULE
X3D
   99    98     1     0     0
SMALL
abcg2


@<TRIPOS>ATOM
      1 C17         17.1400     1.7820   -39.4130 c3         1 X3D       0.230600
      2 C12         17.9290    -3.6200   -41.3290 c3         1 X3D      -0.069400
      3 C16         18.1450     0.7560   -39.8960 c3         1 X3D       0.153300
      4 C11         18.4760    -2.8800   -42.5440 c3         1 X3D      -0.077400
      5 C28         20.4860     2.8940   -41.7240 c          1 X3D       0.609100
      6 C22         12.6840    -0.9170   -38.6130 c3         1 X3D       0.107800
      7 C21         14.0460    -0.4900   -39.1300 c3         1 X3D       0.234600
      8 C36         26.1370    -3.2150   -46.2700 c3         1 X3D      -0.077400
      9 C35         25.1760    -2.7430   -45.1860 c3         1 X3D      -0.076400
     10 C31         22.0690     0.9830   -43.6440 c3         1 X3D      -0.081400
     11 C14         17.8650    -1.6160   -39.8560 c          1 X3D       0.603100
     12 C13         17.0530    -2.7460   -40.4290 c3         1 X3D      -0.138400
     13 C10         19.3750    -3.7500   -43.4090 c3         1 X3D      -0.075400
     14 C30         21.5020     2.3590   -43.9760 c3         1 X3D      -0.063400
     15 C29         20.2290     2.6870   -43.1980 c3         1 X3D      -0.188400
     16 C32         23.1560     0.5480   -44.6190 c3         1 X3D      -0.072400
     17 C34         24.7110    -1.3070   -45.3830 c3         1 X3D      -0.073400
     18 C33         23.7110    -0.8410   -44.3320 c3         1 X3D      -0.077400
     19 C37         26.5040    -4.6880   -46.1540 c3         1 X3D      -0.075400
     20 C38         27.4630    -5.1480   -47.2430 c3         1 X3D      -0.089100
     21 C01         26.2750    -3.9580   -52.5480 c3         1 X3D      -0.088100
     22 C02         25.5720    -4.6200   -51.3710 c3         1 X3D      -0.075400
     23 C03         24.6470    -3.6710   -50.6180 c3         1 X3D      -0.075400
     24 C04         23.9350    -4.3380   -49.4500 c3         1 X3D      -0.077400
     25 C05         23.0050    -3.4070   -48.6840 c3         1 X3D      -0.073400
     26 C06         22.3650    -4.0880   -47.4820 c3         1 X3D      -0.075400
     27 C07         21.4400    -3.1860   -46.6780 c3         1 X3D      -0.076400
     28 C08         20.8750    -3.8840   -45.4480 c3         1 X3D      -0.075400
     29 C09         19.9350    -3.0170   -44.6220 c3         1 X3D      -0.074400
     30 C26         18.8620     1.1960   -41.1670 c3         1 X3D       0.154600
     31 N23         12.5680    -2.3650   -38.6930 n8         1 X3D      -0.999200
     32 O15         17.4180    -0.4230   -40.2460 os         1 X3D      -0.438100
     33 O18         16.5270     1.2950   -38.2440 os         1 X3D      -0.587400
     34 O20         14.1710     0.9210   -39.1460 os         1 X3D      -0.603400
     35 O24         14.6580     1.0550   -36.6130 o          1 X3D      -0.808500
     36 O25         14.7460     3.1510   -38.1940 o          1 X3D      -0.808500
     37 O27         19.7610     2.2390   -40.8120 os         1 X3D      -0.436100
     38 O39         21.3150     3.6690   -41.3200 o          1 X3D      -0.450000
     39 O40         18.8340    -1.7740   -39.1580 o          1 X3D      -0.493000
     40 P19         14.9560     1.6960   -37.9300 p5         1 X3D       1.389800
     41 H1          17.6600     2.7240   -39.2160 h1         1 X3D       0.036700
     42 H2          16.4180     1.9730   -40.2170 h1         1 X3D       0.036700
     43 H3          17.3350    -4.4760   -41.6600 hc         1 X3D       0.045700
     44 H4          18.7540    -4.0290   -40.7410 hc         1 X3D       0.045700
     45 H5          18.8740     0.5410   -39.1110 h1         1 X3D       0.099700
     46 H6          19.0470    -2.0010   -42.2270 hc         1 X3D       0.041200
     47 H7          17.6420    -2.4990   -43.1440 hc         1 X3D       0.041200
     48 H8          11.9050    -0.3760   -39.1670 h1         1 X3D       0.046200
     49 H9          12.5960    -0.6160   -37.5680 h1         1 X3D       0.046200
     50 H10         14.8270    -0.9740   -38.5340 h1         1 X3D       0.020200
     51 H11         14.1760    -0.8390   -40.1600 h1         1 X3D       0.020200
     52 H12         27.0480    -2.6070   -46.2410 hc         1 X3D       0.036700
     53 H13         25.6870    -3.0340   -47.2530 hc         1 X3D       0.036700
     54 H14         24.3010    -3.4020   -45.1690 hc         1 X3D       0.039200
     55 H15         25.6500    -2.8470   -44.2040 hc         1 X3D       0.039200
     56 H16         21.2580     0.2450   -43.6630 hc         1 X3D       0.044700
     57 H17         22.4630     0.9750   -42.6220 hc         1 X3D       0.044700
     58 H18         16.1940    -2.3670   -40.9830 hc         1 X3D       0.078200
     59 H19         16.6700    -3.3420   -39.5970 hc         1 X3D       0.078200
     60 H20         18.8210    -4.6340   -43.7430 hc         1 X3D       0.036700
     61 H21         20.2050    -4.1250   -42.8000 hc         1 X3D       0.036700
     62 H22         22.2550     3.1320   -43.8090 hc         1 X3D       0.047700
     63 H23         21.2510     2.3960   -45.0390 hc         1 X3D       0.047700
     64 H24         19.8090     3.6290   -43.5620 hc         1 X3D       0.065700
     65 H25         19.4820     1.9220   -43.4040 hc         1 X3D       0.065700
     66 H26         23.9720     1.2790   -44.6130 hc         1 X3D       0.034700
     67 H27         22.7440     0.5620   -45.6340 hc         1 X3D       0.034700
     68 H28         25.5760    -0.6360   -45.3910 hc         1 X3D       0.034700
     69 H29         24.2510    -1.2200   -46.3740 hc         1 X3D       0.034700
     70 H30         22.8810    -1.5550   -44.2860 hc         1 X3D       0.042200
     71 H31         24.1790    -0.8560   -43.3420 hc         1 X3D       0.042200
     72 H32         25.5890    -5.2890   -46.1920 hc         1 X3D       0.037200
     73 H33         26.9470    -4.8770   -45.1720 hc         1 X3D       0.037200
     74 H34         27.7000    -6.2080   -47.1480 hc         1 X3D       0.029700
     75 H35         27.0350    -4.9950   -48.2360 hc         1 X3D       0.029700
     76 H36         28.4020    -4.5940   -47.2030 hc         1 X3D       0.029700
     77 H37         26.9420    -4.6530   -53.0590 hc         1 X3D       0.030033
     78 H38         25.5550    -3.5910   -53.2810 hc         1 X3D       0.030033
     79 H39         26.8730    -3.1060   -52.2210 hc         1 X3D       0.030033
     80 H40         24.9950    -5.4790   -51.7260 hc         1 X3D       0.035700
     81 H41         26.3160    -5.0220   -50.6760 hc         1 X3D       0.035700
     82 H42         25.2260    -2.8160   -50.2500 hc         1 X3D       0.037200
     83 H43         23.9060    -3.2570   -51.3110 hc         1 X3D       0.037200
     84 H44         23.3640    -5.1990   -49.8150 hc         1 X3D       0.037200
     85 H45         24.6820    -4.7450   -48.7590 hc         1 X3D       0.037200
     86 H46         23.5640    -2.5270   -48.3460 hc         1 X3D       0.037700
     87 H47         22.2260    -3.0310   -49.3550 hc         1 X3D       0.037700
     88 H48         21.8080    -4.9690   -47.8180 hc         1 X3D       0.036200
     89 H49         23.1570    -4.4660   -46.8270 hc         1 X3D       0.036200
     90 H50         21.9820    -2.2850   -46.3700 hc         1 X3D       0.039200
     91 H51         20.6180    -2.8400   -47.3150 hc         1 X3D       0.039200
     92 H52         20.3490    -4.7930   -45.7590 hc         1 X3D       0.035700
     93 H53         21.7060    -4.2180   -44.8150 hc         1 X3D       0.035700
     94 H54         20.4660    -2.1170   -44.2910 hc         1 X3D       0.037700
     95 H55         19.1100    -2.6670   -45.2510 hc         1 X3D       0.037700
     96 H56         19.4150     0.3540   -41.5920 h1         1 X3D       0.037700
     97 H57         18.1260     1.5320   -41.9010 h1         1 X3D       0.037700
     98 H58         11.7120    -2.6620   -38.2420 hn         1 X3D       0.375500
     99 H59         12.4780    -2.6440   -39.6620 hn         1 X3D       0.375500
@<TRIPOS>BOND
     1     1     3 1   
     2     1    33 1   
     3     1    41 1   
     4     1    42 1   
     5     2     4 1   
     6     2    12 1   
     7     2    43 1   
     8     2    44 1   
     9     3    30 1   
    10     3    32 1   
    11     3    45 1   
    12     4    13 1   
    13     4    46 1   
    14     4    47 1   
    15     5    15 1   
    16     5    37 1   
    17     5    38 2   
    18     6     7 1   
    19     6    31 1   
    20     6    48 1   
    21     6    49 1   
    22     7    34 1   
    23     7    50 1   
    24     7    51 1   
    25     8     9 1   
    26     8    19 1   
    27     8    52 1   
    28     8    53 1   
    29     9    17 1   
    30     9    54 1   
    31     9    55 1   
    32    10    14 1   
    33    10    16 1   
    34    10    56 1   
    35    10    57 1   
    36    11    12 1   
    37    11    32 1   
    38    11    39 2   
    39    12    58 1   
    40    12    59 1   
    41    13    29 1   
    42    13    60 1   
    43    13    61 1   
    44    14    15 1   
    45    14    62 1   
    46    14    63 1   
    47    15    64 1   
    48    15    65 1   
    49    16    18 1   
    50    16    66 1   
    51    16    67 1   
    52    17    18 1   
    53    17    68 1   
    54    17    69 1   
    55    18    70 1   
    56    18    71 1   
    57    19    20 1   
    58    19    72 1   
    59    19    73 1   
    60    20    74 1   
    61    20    75 1   
    62    20    76 1   
    63    21    22 1   
    64    21    77 1   
    65    21    78 1   
    66    21    79 1   
    67    22    23 1   
    68    22    80 1   
    69    22    81 1   
    70    23    24 1   
    71    23    82 1   
    72    23    83 1   
    73    24    25 1   
    74    24    84 1   
    75    24    85 1   
    76    25    26 1   
    77    25    86 1   
    78    25    87 1   
    79    26    27 1   
    80    26    88 1   
    81    26    89 1   
    82    27    28 1   
    83    27    90 1   
    84    27    91 1   
    85    28    29 1   
    86    28    92 1   
    87    28    93 1   
    88    29    94 1   
    89    29    95 1   
    90    30    37 1   
    91    30    96 1   
    92    30    97 1   
    93    31    98 1   
    94    31    99 1   
    95    33    40 1   
    96    34    40 1   
    97    35    40 1   
    98    36    40 1   
@<TRIPOS>SUBSTRUCTURE
     1 X3D         1 TEMP              0 ****  ****    0 ROOT
