@<TRIPOS>MOLECULE
X3G
   62    65     1     0     0
SMALL
abcg2


@<TRIPOS>ATOM
      1 C4          -1.9020     2.1510     0.1480 ca         1 X3G       0.266500
      2 C5          -1.3970     3.4180    -0.1600 ca         1 X3G      -0.015000
      3 C6          -0.0350     3.5600    -0.2440 ca         1 X3G       0.133900
      4 N1           0.8050     2.5520    -0.0430 nb         1 X3G      -0.222000
      5 N3          -1.0610     1.1580     0.3530 nb         1 X3G      -0.285000
      6 CAD          8.7440    -0.2500    -0.6350 c3         1 X3G      -0.354100
      7 SBH          7.2500    -1.1370    -0.9560 s6         1 X3G       1.310700
      8 OAE          6.5220    -0.5470    -2.0610 o          1 X3G      -0.534500
      9 OAF          7.5320    -2.5570    -0.9820 o          1 X3G      -0.534500
     10 CBC          5.0940    -0.5160     0.3830 ca         1 X3G       0.086100
     11 CAW          4.1780    -1.5560     0.5180 ca         1 X3G      -0.034300
     12 CAB          4.6100    -2.9880     0.6320 c3         1 X3G      -0.056300
     13 CAK          2.8320    -1.2280     0.5410 ca         1 X3G      -0.147000
     14 CAV          4.7000     0.8130     0.2890 ca         1 X3G      -0.034300
     15 CAA          5.7070     1.9190     0.1770 c3         1 X3G      -0.056300
     16 CAJ          3.3410     1.1100     0.3130 ca         1 X3G      -0.147000
     17 CAZ          2.3930     0.0940     0.4320 ca         1 X3G       0.331000
     18 C2           0.2480     1.3860     0.2540 ca         1 X3G       0.411900
     19 F5          -2.1920     4.4800    -0.3450 f          1 X3G      -0.157000
     20 NBG         -3.2470     1.8600     0.2780 na         1 X3G      -0.008500
     21 CAM         -3.7200     0.7230     0.9020 cc         1 X3G      -0.145000
     22 CAL         -4.3320     2.5770    -0.2030 cc         1 X3G      -0.178000
     23 CAX         -5.4710     1.9060     0.1190 cd         1 X3G      -0.100300
     24 CAC         -6.8690     2.3150    -0.1960 c3         1 X3G      -0.019800
     25 CBA         -5.0760     0.7260     0.8340 cd         1 X3G      -0.148300
     26 CAP         -5.9900    -0.3150     1.3910 c3         1 X3G       0.249100
     27 NBF         -6.7520    -0.9760     0.3550 n3         1 X3G      -0.720600
     28 CAQ         -7.7230    -1.9190     0.8640 c5         1 X3G       0.158800
     29 CAO         -5.9580    -1.7380    -0.5910 c5         1 X3G       0.163800
     30 CAN         -7.0060    -2.5510    -1.3540 c5         1 X3G      -0.116400
     31 CBE         -8.2110    -2.6420    -0.3890 c5         1 X3G       0.162300
     32 OAG         -8.6050    -3.9510    -0.0450 oh         1 X3G      -0.657000
     33 H1           0.3920     4.5300    -0.4760 h4         1 X3G       0.044100
     34 H2           9.2000    -0.6350     0.2750 h1         1 X3G       0.107700
     35 H3           9.4060    -0.4240    -1.4820 h1         1 X3G       0.107700
     36 H4           8.5320     0.8110    -0.5400 h1         1 X3G       0.107700
     37 H5           5.4330    -3.1120     1.3340 hc         1 X3G       0.053867
     38 H6           3.7810    -3.6070     0.9710 hc         1 X3G       0.053867
     39 H7           4.9410    -3.3840    -0.3280 hc         1 X3G       0.053867
     40 H8           2.1040    -2.0250     0.6430 ha         1 X3G       0.136000
     41 H9           6.2000     1.9130    -0.7960 hc         1 X3G       0.053867
     42 H10          5.2280     2.8890     0.2910 hc         1 X3G       0.053867
     43 H11          6.4830     1.8380     0.9390 hc         1 X3G       0.053867
     44 H12          3.0280     2.1390     0.2380 ha         1 X3G       0.136000
     45 H13          0.4740    -0.5450     0.6560 hn         1 X3G       0.514000
     46 H14         -3.0460     0.0130     1.3520 h4         1 X3G       0.163000
     47 H15         -4.2180     3.4880    -0.7630 h4         1 X3G       0.162000
     48 H16         -7.4080     1.5060    -0.6890 hc         1 X3G       0.044367
     49 H17         -7.4250     2.5560     0.7140 hc         1 X3G       0.044367
     50 H18         -6.8940     3.1940    -0.8390 hc         1 X3G       0.044367
     51 H19         -5.4030    -1.0360     1.9860 h1         1 X3G       0.036700
     52 H20         -6.7000     0.1530     2.0810 h1         1 X3G       0.036700
     53 H22         -7.2630    -2.6580     1.5460 h1         1 X3G       0.047700
     54 H23         -8.5190    -1.4110     1.4120 h1         1 X3G       0.047700
     55 H24         -5.3710    -1.0820    -1.2350 h1         1 X3G       0.041700
     56 H25         -5.2500    -2.4090    -0.0740 h1         1 X3G       0.041700
     57 H26         -7.2910    -2.0500    -2.2800 hc         1 X3G       0.051200
     58 H27         -6.6340    -3.5410    -1.6180 hc         1 X3G       0.051200
     59 H28         -9.0570    -2.0920    -0.8170 h1         1 X3G       0.040700
     60 H29         -8.9660    -4.3700    -0.8320 ho         1 X3G       0.444000
     61 NAT          1.0180     0.2860     0.4770 nu         1 X3G      -0.922900
     62 OAU          6.4540    -0.8060     0.4290 os         1 X3G      -0.450800
@<TRIPOS>BOND
     1     1     2 ar  
     2     1     5 ar  
     3     1    20 1   
     4     2     3 ar  
     5     2    19 1   
     6     3     4 ar  
     7     3    33 1   
     8     4    18 ar  
     9     5    18 ar  
    10     6     7 1   
    11     6    34 1   
    12     6    35 1   
    13     6    36 1   
    14     7     8 2   
    15     7     9 2   
    16     7    62 1   
    17    10    11 ar  
    18    10    14 ar  
    19    10    62 1   
    20    11    12 1   
    21    11    13 ar  
    22    12    37 1   
    23    12    38 1   
    24    12    39 1   
    25    13    17 ar  
    26    13    40 1   
    27    14    15 1   
    28    14    16 ar  
    29    15    41 1   
    30    15    42 1   
    31    15    43 1   
    32    16    17 ar  
    33    16    44 1   
    34    17    61 1   
    35    18    61 1   
    36    20    21 1   
    37    20    22 1   
    38    21    25 2   
    39    21    46 1   
    40    22    23 2   
    41    22    47 1   
    42    23    24 1   
    43    23    25 1   
    44    24    48 1   
    45    24    49 1   
    46    24    50 1   
    47    25    26 1   
    48    26    27 1   
    49    26    51 1   
    50    26    52 1   
    51    27    28 1   
    52    27    29 1   
    53    28    31 1   
    54    28    53 1   
    55    28    54 1   
    56    29    30 1   
    57    29    55 1   
    58    29    56 1   
    59    30    31 1   
    60    30    57 1   
    61    30    58 1   
    62    31    32 1   
    63    31    59 1   
    64    32    60 1   
    65    45    61 1   
@<TRIPOS>SUBSTRUCTURE
     1 X3G         1 TEMP              0 ****  ****    0 ROOT
