@<TRIPOS>MOLECULE
X3G
   62    65     1     0     0
SMALL
No Charge or Current Charge


@<TRIPOS>ATOM
      1 C4          -1.9710     2.0290     0.7780 ca         1 X3G       0.266500
      2 C5          -1.4720     3.3140     1.1140 ca         1 X3G      -0.015000
      3 C6          -0.0830     3.4860     1.2290 ca         1 X3G       0.133900
      4 N1           0.7690     2.4650     1.0260 nb         1 X3G      -0.222000
      5 N3          -1.0920     1.0170     0.5820 nb         1 X3G      -0.285000
      6 CAD          8.5560    -0.2940    -1.3960 c3         1 X3G      -0.354100
      7 SBH          7.1750    -1.4070    -1.1860 s6         1 X3G       1.310700
      8 OAE          6.2360    -1.2350    -2.3020 o          1 X3G      -0.534500
      9 OAF          7.6950    -2.7360    -0.8380 o          1 X3G      -0.534500
     10 CBC          5.2060    -0.4740     0.2530 ca         1 X3G       0.086100
     11 CAW          4.3440    -1.4910     0.7250 ca         1 X3G      -0.034300
     12 CAB          4.8810    -2.8500     1.1650 c3         1 X3G      -0.056300
     13 CAK          2.9600    -1.2440     0.7970 ca         1 X3G      -0.147000
     14 CAV          4.6810     0.7880    -0.1090 ca         1 X3G      -0.034300
     15 CAA          5.5880     1.9140    -0.5960 c3         1 X3G      -0.056300
     16 CAJ          3.2930     1.0100    -0.0260 ca         1 X3G      -0.147000
     17 CAZ          2.4280     0.0020     0.4330 ca         1 X3G       0.331000
     18 C2           0.2170     1.2840     0.7020 ca         1 X3G       0.411900
     19 F5          -2.2960     4.3650     1.3480 f          1 X3G      -0.157000
     20 NBG         -3.3540     1.8550     0.6620 na         1 X3G      -0.008500
     21 CAM         -4.0400     0.8130     1.2700 cc         1 X3G      -0.145000
     22 CAL         -4.1630     2.6180    -0.1710 cc         1 X3G      -0.178000
     23 CAX         -5.4110     2.0600    -0.0510 cd         1 X3G      -0.100300
     24 CAC         -6.6560     2.5300    -0.7560 c3         1 X3G      -0.019800
     25 CBA         -5.3360     0.9470     0.8360 cd         1 X3G      -0.148300
     26 CAP         -6.4910     0.0510     1.2240 c3         1 X3G       0.249100
     27 NBF         -6.8740    -0.8930     0.1530 n3         1 X3G      -0.720600
     28 CAQ         -8.0260    -1.7720     0.4700 c5         1 X3G       0.158800
     29 CAO         -5.8340    -1.8490    -0.2680 c5         1 X3G       0.163800
     30 CAN         -6.6150    -2.6440    -1.3400 c5         1 X3G      -0.116400
     31 CBE         -8.0280    -2.8210    -0.6990 c5         1 X3G       0.162300
     32 OAG         -8.2290    -4.1590    -0.2310 oh         1 X3G      -0.657000
     33 H1           0.3520     4.4480     1.4930 h4         1 X3G       0.044100
     34 H2           9.1600    -0.3480    -0.4840 h1         1 X3G       0.107700
     35 H3           9.1190    -0.6350    -2.2700 h1         1 X3G       0.107700
     36 H4           8.1520     0.7110    -1.5480 h1         1 X3G       0.107700
     37 H5           5.8290    -2.7520     1.7070 hc         1 X3G       0.053867
     38 H6           4.1800    -3.3620     1.8350 hc         1 X3G       0.053867
     39 H7           5.0500    -3.5050     0.3020 hc         1 X3G       0.053867
     40 H8           2.2930    -2.0250     1.1530 ha         1 X3G       0.136000
     41 H9           5.8710     1.7630    -1.6440 hc         1 X3G       0.053867
     42 H10          5.0940     2.8900    -0.5240 hc         1 X3G       0.053867
     43 H11          6.5070     1.9730    -0.0000 hc         1 X3G       0.053867
     44 H12          2.8910     1.9670    -0.3400 ha         1 X3G       0.136000
     45 H13          0.5150    -0.6860     0.5080 hn         1 X3G       0.514000
     46 H14         -3.5720     0.0950     1.9330 h4         1 X3G       0.163000
     47 H15         -3.8020     3.4570    -0.7540 h4         1 X3G       0.162000
     48 H16         -7.0640     1.7410    -1.3990 hc         1 X3G       0.044367
     49 H17         -7.4330     2.8130    -0.0360 hc         1 X3G       0.044367
     50 H18         -6.4520     3.4030    -1.3880 hc         1 X3G       0.044367
     51 H19         -6.2150    -0.5020     2.1330 h1         1 X3G       0.036700
     52 H20         -7.3480     0.6870     1.4830 h1         1 X3G       0.036700
     53 H22         -7.8880    -2.2700     1.4410 h1         1 X3G       0.047700
     54 H23         -8.9700    -1.2100     0.5130 h1         1 X3G       0.047700
     55 H24         -4.9470    -1.3550    -0.6890 h1         1 X3G       0.041700
     56 H25         -5.5110    -2.4940     0.5630 h1         1 X3G       0.041700
     57 H26         -6.6850    -2.0680    -2.2700 hc         1 X3G       0.051200
     58 H27         -6.1270    -3.5940    -1.5880 hc         1 X3G       0.051200
     59 H28         -8.8020    -2.5640    -1.4350 h1         1 X3G       0.040700
     60 H29         -8.2190    -4.7390    -1.0240 ho         1 X3G       0.444000
     61 NAT          1.0430     0.1860     0.5150 nu         1 X3G      -0.922900
     62 OAU          6.5620    -0.7000     0.1740 os         1 X3G      -0.450800
@<TRIPOS>BOND
     1     1     2 ar  
     2     1     5 ar  
     3     1    20 1   
     4     2     3 ar  
     5     2    19 1   
     6     3     4 ar  
     7     3    33 1   
     8     4    18 ar  
     9     5    18 ar  
    10     6     7 1   
    11     6    34 1   
    12     6    35 1   
    13     6    36 1   
    14     7     8 2   
    15     7     9 2   
    16     7    62 1   
    17    10    11 ar  
    18    10    14 ar  
    19    10    62 1   
    20    11    12 1   
    21    11    13 ar  
    22    12    37 1   
    23    12    38 1   
    24    12    39 1   
    25    13    17 ar  
    26    13    40 1   
    27    14    15 1   
    28    14    16 ar  
    29    15    41 1   
    30    15    42 1   
    31    15    43 1   
    32    16    17 ar  
    33    16    44 1   
    34    17    61 1   
    35    18    61 1   
    36    20    21 1   
    37    20    22 1   
    38    21    25 2   
    39    21    46 1   
    40    22    23 2   
    41    22    47 1   
    42    23    24 1   
    43    23    25 1   
    44    24    48 1   
    45    24    49 1   
    46    24    50 1   
    47    25    26 1   
    48    26    27 1   
    49    26    51 1   
    50    26    52 1   
    51    27    28 1   
    52    27    29 1   
    53    28    31 1   
    54    28    53 1   
    55    28    54 1   
    56    29    30 1   
    57    29    55 1   
    58    29    56 1   
    59    30    31 1   
    60    30    57 1   
    61    30    58 1   
    62    31    32 1   
    63    31    59 1   
    64    32    60 1   
    65    45    61 1   
@<TRIPOS>SUBSTRUCTURE
     1 X3G         1 TEMP              0 ****  ****    0 ROOT
