@<TRIPOS>MOLECULE
X3H
   57    57     1     0     0
SMALL
No Charge or Current Charge


@<TRIPOS>ATOM
      1 C14          8.4760     0.4570     0.7050 c3         1 X3H      -0.055900
      2 C16         -5.6200     2.7130     0.9410 c3         1 X3H      -0.090100
      3 C19          1.9990    -2.5370    -0.0930 c3         1 X3H       0.145900
      4 C18          3.6840     1.0780     1.3760 c3         1 X3H      -0.083100
      5 C17          1.2140     2.1530    -1.1570 c3         1 X3H      -0.095100
      6 O01         -3.8810    -2.7750     1.3330 o          1 X3H      -0.510000
      7 O07         -0.3290    -0.2350    -2.1100 oh         1 X3H      -0.658000
      8 C13          7.1040    -0.1800     0.6560 c2         1 X3H      -0.218200
      9 C12          6.1510     0.1040    -0.2450 c2         1 X3H      -0.222200
     10 C15         -4.3370     1.8640     0.8270 c3         1 X3H      -0.071400
     11 C11          4.7750    -0.5340    -0.2950 c3         1 X3H      -0.039200
     12 C02         -5.3950    -1.0910     0.4950 c6         1 X3H      -0.191400
     13 C06         -1.6220     0.9280    -0.4120 c3         1 X3H      -0.108400
     14 O09          1.9610    -1.2210     0.4910 os         1 X3H      -0.462000
     15 O06         -2.9080    -0.8990     0.5150 os         1 X3H      -0.454100
     16 C01         -4.0030    -1.6750     0.8150 c          1 X3H       0.672100
     17 C10          3.6220     0.4790    -0.0560 c3         1 X3H      -0.064700
     18 C08          0.9930     0.8430    -0.3420 c3         1 X3H      -0.099700
     19 C07         -0.3390     0.1120    -0.7170 c3         1 X3H       0.166300
     20 C03         -5.4220    -0.0210    -0.6190 c6         1 X3H      -0.071400
     21 C05         -2.9410     0.1100    -0.5180 c6         1 X3H       0.202300
     22 C04         -4.2390     0.9620    -0.4540 c6         1 X3H      -0.095700
     23 C09          2.2210    -0.1280    -0.4190 c3         1 X3H       0.180300
     24 H141         9.2630    -0.2990     0.5970 hc         1 X3H       0.038033
     25 H142         8.6090     1.1950    -0.0950 hc         1 X3H       0.038033
     26 H143         8.6340     0.9700     1.6610 hc         1 X3H       0.038033
     27 H161        -5.5470     3.3990     1.7940 hc         1 X3H       0.034367
     28 H162        -5.7730     3.3110     0.0350 hc         1 X3H       0.034367
     29 H163        -6.5020     2.0810     1.0970 hc         1 X3H       0.034367
     30 H191         1.7970    -3.2980     0.6710 h1         1 X3H       0.031033
     31 H192         1.2400    -2.6350    -0.8800 h1         1 X3H       0.031033
     32 H193         2.9820    -2.7470    -0.5320 h1         1 X3H       0.031033
     33 H182         4.6660     1.5230     1.5720 hc         1 X3H       0.036033
     34 H183         2.9390     1.8700     1.5090 hc         1 X3H       0.036033
     35 H171         2.0480     2.7350    -0.7480 hc         1 X3H       0.035367
     36 H172         1.4360     1.9350    -2.2080 hc         1 X3H       0.035367
     37 H173         0.3360     2.8060    -1.1180 hc         1 X3H       0.035367
     38 H071        -0.1900     0.5970    -2.6100 ho         1 X3H       0.432000
     39 H13          6.9240    -0.9210     1.4390 ha         1 X3H       0.167000
     40 H12          6.3320     0.8450    -1.0270 ha         1 X3H       0.162000
     41 H151        -3.4940     2.5640     0.8430 hc         1 X3H       0.045700
     42 H152        -4.2370     1.2580     1.7360 hc         1 X3H       0.045700
     43 H111         4.6400    -1.0060    -1.2760 hc         1 X3H       0.047700
     44 H112         4.7070    -1.3410     0.4460 hc         1 X3H       0.047700
     45 H2          -6.1020    -1.9110     0.3150 hc         1 X3H       0.076700
     46 H021        -5.7270    -0.6140     1.4250 hc         1 X3H       0.076700
     47 H061        -1.5310     1.3400     0.6000 hc         1 X3H       0.055200
     48 H062        -1.6810     1.7850    -1.0920 hc         1 X3H       0.055200
     49 H10          3.8050     1.3010    -0.7570 hc         1 X3H       0.044700
     50 H08          0.8890     1.1400     0.7090 hc         1 X3H       0.067700
     51 H07         -0.3980    -0.8020    -0.1070 h1         1 X3H       0.106700
     52 H1          -5.3480    -0.5180    -1.5970 hc         1 X3H       0.051700
     53 H031        -6.3860     0.5050    -0.6270 hc         1 X3H       0.051700
     54 H05         -2.9350    -0.4080    -1.4890 h1         1 X3H       0.059700
     55 H04         -4.2430     1.6480    -1.3130 hc         1 X3H       0.058700
     56 H09          2.2820    -0.4930    -1.4540 h1         1 X3H       0.045700
     57 H181         3.5040     0.3060     2.1330 hc         1 X3H       0.036033
@<TRIPOS>BOND
     1     1     8 1   
     2     1    24 1   
     3     1    25 1   
     4     1    26 1   
     5     2    10 1   
     6     2    27 1   
     7     2    28 1   
     8     2    29 1   
     9     3    14 1   
    10     3    30 1   
    11     3    31 1   
    12     3    32 1   
    13     4    17 1   
    14     4    33 1   
    15     4    34 1   
    16     4    57 1   
    17     5    18 1   
    18     5    35 1   
    19     5    36 1   
    20     5    37 1   
    21     6    16 2   
    22     7    19 1   
    23     7    38 1   
    24     8     9 2   
    25     8    39 1   
    26     9    11 1   
    27     9    40 1   
    28    10    22 1   
    29    10    41 1   
    30    10    42 1   
    31    11    17 1   
    32    11    43 1   
    33    11    44 1   
    34    12    16 1   
    35    12    20 1   
    36    12    45 1   
    37    12    46 1   
    38    13    19 1   
    39    13    21 1   
    40    13    47 1   
    41    13    48 1   
    42    14    23 1   
    43    15    16 1   
    44    15    21 1   
    45    17    23 1   
    46    17    49 1   
    47    18    19 1   
    48    18    23 1   
    49    18    50 1   
    50    19    51 1   
    51    20    22 1   
    52    20    52 1   
    53    20    53 1   
    54    21    22 1   
    55    21    54 1   
    56    22    55 1   
    57    23    56 1   
@<TRIPOS>SUBSTRUCTURE
     1 X3H         1 TEMP              0 ****  ****    0 ROOT
