@<TRIPOS>MOLECULE
X3J
   28    27     1     0     0
SMALL
abcg2


@<TRIPOS>ATOM
      1 C           -3.1830    -1.1120     0.5320 c          1 X3J       0.725000
      2 O1          -2.8170    -1.4900     1.6830 o          1 X3J      -0.751500
      3 O2          -4.3150    -0.6920     0.2530 o          1 X3J      -0.751500
      4 C1          -2.1120    -1.1690    -0.5670 c3         1 X3J      -0.206400
      5 C3           4.7100    -0.7340    -0.0400 c3         1 X3J       0.118800
      6 N3           5.9630    -0.2040     0.4770 n8         1 X3J      -0.996200
      7 O3          -0.3080    -0.9230     0.9960 oh         1 X3J      -0.747000
      8 CM3         -1.2520     1.1320     0.0210 c          1 X3J       0.721000
      9 O5          -1.8340     1.6660    -0.9470 o          1 X3J      -0.736000
     10 C4           3.5580     0.1880     0.3430 c3         1 X3J       0.104000
     11 N4           2.2880    -0.3290    -0.1020 ns         1 X3J      -0.507900
     12 CAP         -0.8620    -0.3650    -0.1680 c3         1 X3J       0.073000
     13 O4           1.7410     1.3740    -1.4880 o          1 X3J      -0.642100
     14 CM4          0.1860    -0.4490    -1.2890 c3         1 X3J      -0.135400
     15 OAF         -0.9570     1.6800     1.0980 o          1 X3J      -0.736000
     16 H11C        -1.8060    -2.2130    -0.7070 hc         1 X3J       0.011200
     17 H12C        -2.5070    -0.8150    -1.5160 hc         1 X3J       0.011200
     18 H31C         4.7740    -0.7820    -1.1270 h1         1 X3J       0.024700
     19 H32C         4.4800    -1.7490     0.3110 h1         1 X3J       0.024700
     20 H31N         5.9760    -0.2890     1.4860 hn         1 X3J       0.375000
     21 H32N         6.7290    -0.7750     0.1470 hn         1 X3J       0.375000
     22 H41C         3.5390     0.3010     1.4330 h1         1 X3J       0.052200
     23 H42C         3.7200     1.1790    -0.0820 h1         1 X3J       0.052200
     24 H3          -1.0760    -1.2570     1.5080 ho         1 X3J       0.504000
     25 H4           1.9180    -1.1370     0.3760 hn         1 X3J       0.331500
     26 HM41        -0.2060     0.0180    -2.1800 hc         1 X3J       0.040700
     27 HM42         0.4090    -1.4990    -1.4920 hc         1 X3J       0.040700
     28 C2           1.4760     0.2930    -0.9710 c          1 X3J       0.625100
@<TRIPOS>BOND
     1     1     2 1   
     2     1     3 1   
     3     1     4 1   
     4     4    12 1   
     5     4    16 1   
     6     4    17 1   
     7     5     6 1   
     8     5    10 1   
     9     5    18 1   
    10     5    19 1   
    11     6    20 1   
    12     6    21 1   
    13     7    12 1   
    14     7    24 1   
    15     8     9 1   
    16     8    12 1   
    17     8    15 1   
    18    10    11 1   
    19    10    22 1   
    20    10    23 1   
    21    11    25 1   
    22    11    28 1   
    23    12    14 1   
    24    13    28 2   
    25    14    26 1   
    26    14    27 1   
    27    14    28 1   
@<TRIPOS>SUBSTRUCTURE
     1 X3J         1 TEMP              0 ****  ****    0 ROOT
