@<TRIPOS>MOLECULE
X3J
   28    27     1     0     0
SMALL
No Charge or Current Charge


@<TRIPOS>ATOM
      1 C           -3.4260    -0.8320     0.3420 c          1 X3J       0.725000
      2 O1          -3.4250    -1.1450     1.5240 o          1 X3J      -0.751500
      3 O2          -4.2750    -0.1210    -0.1720 o          1 X3J      -0.751500
      4 C1          -2.2030    -1.2470    -0.4910 c3         1 X3J      -0.206400
      5 C3           4.7920    -0.2640    -0.3270 c3         1 X3J       0.118800
      6 N3           6.1180     0.1680     0.1710 n8         1 X3J      -0.996200
      7 O3          -0.7320    -0.5580     1.2630 oh         1 X3J      -0.747000
      8 CM3         -1.3440     1.1910    -0.5140 c          1 X3J       0.721000
      9 O5          -1.4750     1.5010    -1.6940 o          1 X3J      -0.736000
     10 C4           3.7020    -0.2570     0.7760 c3         1 X3J       0.104000
     11 N4           2.4050    -0.7480     0.2970 ns         1 X3J      -0.507900
     12 CAP         -0.9900    -0.3310    -0.1490 c3         1 X3J       0.073000
     13 O4           1.8010     1.0860    -0.9070 o          1 X3J      -0.642100
     14 CM4          0.2740    -0.8040    -0.9270 c3         1 X3J      -0.135400
     15 OAF         -1.4560     2.0120     0.3910 o          1 X3J      -0.736000
     16 H11C        -1.8950    -2.2610    -0.2010 hc         1 X3J       0.011200
     17 H12C        -2.4080    -1.1600    -1.5650 hc         1 X3J       0.011200
     18 H31C         4.4940     0.4070    -1.1430 h1         1 X3J       0.024700
     19 H32C         4.8900    -1.2790    -0.7360 h1         1 X3J       0.024700
     20 H31N         6.4570    -0.5130     0.8620 hn         1 X3J       0.375000
     21 H32N         6.8020     0.0990    -0.5930 hn         1 X3J       0.375000
     22 H41C         4.0240    -0.8950     1.6100 h1         1 X3J       0.052200
     23 H42C         3.5750     0.7630     1.1620 h1         1 X3J       0.052200
     24 H3          -1.6310    -0.7290     1.6550 ho         1 X3J       0.504000
     25 H4           2.0940    -1.6660     0.5920 hn         1 X3J       0.331500
     26 HM41         0.1070    -0.6550    -2.0010 hc         1 X3J       0.040700
     27 HM42         0.4160    -1.8730    -0.7300 hc         1 X3J       0.040700
     28 C2           1.5400    -0.0420    -0.5090 c          1 X3J       0.625100
@<TRIPOS>BOND
     1     1     2 1   
     2     1     3 1   
     3     1     4 1   
     4     4    12 1   
     5     4    16 1   
     6     4    17 1   
     7     5     6 1   
     8     5    10 1   
     9     5    18 1   
    10     5    19 1   
    11     6    20 1   
    12     6    21 1   
    13     7    12 1   
    14     7    24 1   
    15     8     9 1   
    16     8    12 1   
    17     8    15 1   
    18    10    11 1   
    19    10    22 1   
    20    10    23 1   
    21    11    25 1   
    22    11    28 1   
    23    12    14 1   
    24    13    28 2   
    25    14    26 1   
    26    14    27 1   
    27    14    28 1   
@<TRIPOS>SUBSTRUCTURE
     1 X3J         1 TEMP              0 ****  ****    0 ROOT
