@<TRIPOS>MOLECULE
X3K
   33    35     1     0     0
SMALL
No Charge or Current Charge


@<TRIPOS>ATOM
      1 C4         -30.4480    11.0880   -36.3360 ca         1 X3K      -0.024000
      2 C14        -29.9160    10.0430   -40.6570 cc         1 X3K      -0.225200
      3 C5         -31.2170    12.1710   -35.8720 ca         1 X3K      -0.162000
      4 C6         -32.3170    12.6350   -36.6100 ca         1 X3K      -0.085000
      5 C11        -33.9530     9.3450   -41.1400 ca         1 X3K       0.351900
      6 C7         -32.6580    12.0170   -37.8230 ca         1 X3K      -0.122000
      7 C8         -31.9060    10.9270   -38.3210 cp         1 X3K      -0.011000
      8 C9         -32.2840    10.2640   -39.6070 cp         1 X3K       0.048000
      9 C10        -33.6330     9.9780   -39.9240 ca         1 X3K      -0.189000
     10 C12        -31.7370     9.2660   -41.7640 ca         1 X3K       0.367500
     11 C13        -29.4920     9.5030   -41.8580 cd         1 X3K      -0.153100
     12 N1         -29.3550    10.6640   -35.5320 ns         1 X3K      -0.145000
     13 N2         -33.0210     8.9880   -42.0560 nb         1 X3K      -0.682000
     14 C3         -28.3180     9.7710   -35.7660 c          1 X3K       0.605300
     15 N3         -30.6260     9.0130   -42.5460 na         1 X3K      -0.338400
     16 C1         -26.2570     8.8640   -34.6220 c2         1 X3K      -0.223000
     17 C2         -27.3910     9.6100   -34.6030 ce         1 X3K      -0.304200
     18 O1         -28.1390     9.1770   -36.8220 o          1 X3K      -0.586100
     19 C15        -31.3440     9.8830   -40.5920 ca         1 X3K      -0.119800
     20 C16        -30.8070    10.4680   -37.5530 ca         1 X3K      -0.117000
     21 H1         -29.2680    10.5150   -39.9200 ha         1 X3K       0.217000
     22 H2         -30.9610    12.6580   -34.9330 ha         1 X3K       0.109000
     23 H3         -32.9040    13.4740   -36.2430 ha         1 X3K       0.114000
     24 H4         -34.9890     9.1160   -41.3870 h4         1 X3K       0.018100
     25 H5         -33.5080    12.3910   -38.3890 ha         1 X3K       0.119000
     26 H6         -34.4280    10.2300   -39.2300 ha         1 X3K       0.121000
     27 H7         -28.4850     9.4380   -42.2700 h4         1 X3K       0.216000
     28 H8         -29.3320    11.0930   -34.6160 hn         1 X3K       0.149000
     29 H9         -30.6440     8.5640   -43.4530 hn         1 X3K       0.360000
     30 H10        -25.9440     8.3090   -35.5090 ha         1 X3K       0.179500
     31 H11        -25.6070     8.7850   -33.7490 ha         1 X3K       0.179500
     32 H12        -27.6650    10.1580   -33.7010 ha         1 X3K       0.177000
     33 H13        -30.2580     9.6050   -37.9150 ha         1 X3K       0.157000
@<TRIPOS>BOND
     1     1     3 ar  
     2     1    12 1   
     3     1    20 ar  
     4     2    11 2   
     5     2    19 1   
     6     2    21 1   
     7     3     4 ar  
     8     3    22 1   
     9     4     6 ar  
    10     4    23 1   
    11     5     9 ar  
    12     5    13 ar  
    13     5    24 1   
    14     6     7 ar  
    15     6    25 1   
    16     7     8 1   
    17     7    20 ar  
    18     8     9 ar  
    19     8    19 ar  
    20     9    26 1   
    21    10    13 ar  
    22    10    15 1   
    23    10    19 ar  
    24    11    15 1   
    25    11    27 1   
    26    12    14 1   
    27    12    28 1   
    28    14    17 1   
    29    14    18 2   
    30    15    29 1   
    31    16    17 2   
    32    16    30 1   
    33    16    31 1   
    34    17    32 1   
    35    20    33 1   
@<TRIPOS>SUBSTRUCTURE
     1 X3K         1 TEMP              0 ****  ****    0 ROOT
