@<TRIPOS>MOLECULE
X3K
   33    35     1     0     0
SMALL
abcg2


@<TRIPOS>ATOM
      1 C4         -30.4850    11.0890   -36.3190 ca         1 X3K      -0.024000
      2 C14        -29.8190     9.9510   -40.5770 cc         1 X3K      -0.225200
      3 C5         -31.2880    12.1260   -35.8310 ca         1 X3K      -0.162000
      4 C6         -32.3850    12.5550   -36.5610 ca         1 X3K      -0.085000
      5 C11        -33.8690     9.4370   -41.1550 ca         1 X3K       0.351900
      6 C7         -32.6980    11.9640   -37.7790 ca         1 X3K      -0.122000
      7 C8         -31.9040    10.9280   -38.2770 cp         1 X3K      -0.011000
      8 C9         -32.2320    10.2860   -39.5680 cp         1 X3K       0.048000
      9 C10        -33.5570    10.0480   -39.9390 ca         1 X3K      -0.189000
     10 C12        -31.7000     9.2770   -41.6980 ca         1 X3K       0.367500
     11 C13        -29.4670     9.3990   -41.7800 cd         1 X3K      -0.153100
     12 N1         -29.3940    10.6980   -35.5270 ns         1 X3K      -0.145000
     13 N2         -32.9590     9.0420   -42.0500 nb         1 X3K      -0.682000
     14 C3         -28.3930     9.8120   -35.8060 c          1 X3K       0.605300
     15 N3         -30.5950     8.9890   -42.4540 na         1 X3K      -0.338400
     16 C1         -26.3440     8.8870   -34.8070 c2         1 X3K      -0.223000
     17 C2         -27.3910     9.7000   -34.7120 ce         1 X3K      -0.304200
     18 O1         -28.3160     9.1710   -36.8510 o          1 X3K      -0.586100
     19 C15        -31.2490     9.8850   -40.4890 ca         1 X3K      -0.119800
     20 C16        -30.7980    10.4920   -37.5410 ca         1 X3K      -0.117000
     21 H1         -29.1340    10.3540   -39.8510 ha         1 X3K       0.217000
     22 H2         -31.0440    12.5910   -34.8830 ha         1 X3K       0.109000
     23 H3         -32.9960    13.3620   -36.1790 ha         1 X3K       0.114000
     24 H4         -34.9070     9.2550   -41.4120 h4         1 X3K       0.018100
     25 H5         -33.5460    12.3190   -38.3500 ha         1 X3K       0.119000
     26 H6         -34.3640    10.3180   -39.2710 ha         1 X3K       0.121000
     27 H7         -28.4910     9.2620   -42.2170 h4         1 X3K       0.216000
     28 H8         -29.3260    11.1720   -34.6390 hn         1 X3K       0.149000
     29 H9         -30.6130     8.5620   -43.3670 hn         1 X3K       0.360000
     30 H10        -26.1930     8.2780   -35.6900 ha         1 X3K       0.179500
     31 H11        -25.6170     8.8110   -34.0090 ha         1 X3K       0.179500
     32 H12        -27.5420    10.3100   -33.8280 ha         1 X3K       0.177000
     33 H13        -30.1930     9.6790   -37.9000 ha         1 X3K       0.157000
@<TRIPOS>BOND
     1     1     3 ar  
     2     1    12 1   
     3     1    20 ar  
     4     2    11 2   
     5     2    19 1   
     6     2    21 1   
     7     3     4 ar  
     8     3    22 1   
     9     4     6 ar  
    10     4    23 1   
    11     5     9 ar  
    12     5    13 ar  
    13     5    24 1   
    14     6     7 ar  
    15     6    25 1   
    16     7     8 1   
    17     7    20 ar  
    18     8     9 ar  
    19     8    19 ar  
    20     9    26 1   
    21    10    13 ar  
    22    10    15 1   
    23    10    19 ar  
    24    11    15 1   
    25    11    27 1   
    26    12    14 1   
    27    12    28 1   
    28    14    17 1   
    29    14    18 2   
    30    15    29 1   
    31    16    17 2   
    32    16    30 1   
    33    16    31 1   
    34    17    32 1   
    35    20    33 1   
@<TRIPOS>SUBSTRUCTURE
     1 X3K         1 TEMP              0 ****  ****    0 ROOT
