@<TRIPOS>MOLECULE
X3L
   57    60     1     0     0
SMALL
abcg2


@<TRIPOS>ATOM
      1 C10          6.4700   -10.6950    -0.7700 ca         1 X3L       0.149900
      2 C13          9.0720   -10.4870    -3.4250 cc         1 X3L      -0.293500
      3 C15          9.6380    -8.0440    -4.2150 c3         1 X3L      -0.043800
      4 C21         10.6280    -7.4980    -0.1790 ca         1 X3L      -0.188000
      5 C22         11.7950    -6.7630     0.0250 ca         1 X3L       0.312000
      6 C24         12.7320    -7.2790    -2.2040 c3         1 X3L       0.238500
      7 C26         13.5820    -6.4790    -3.1850 c3         1 X3L      -0.109600
      8 C28         14.4890    -7.9470     0.6520 c3         1 X3L      -0.117100
      9 C01         13.0500    -4.0590     2.2490 c3         1 X3L       0.081300
     10 C03         11.9270    -5.9650     1.1740 ca         1 X3L      -0.107000
     11 C04         10.8890    -5.9350     2.0940 ca         1 X3L      -0.086000
     12 C05          9.7300    -6.6650     1.8890 ca         1 X3L      -0.187000
     13 C06          9.5860    -7.4540     0.7480 ca         1 X3L       0.334000
     14 C08          8.0000    -9.1170    -0.2700 ca         1 X3L       0.388900
     15 C11          7.1380   -11.0040    -1.9440 ca         1 X3L      -0.269000
     16 C12          8.2850   -10.2640    -2.2180 ca         1 X3L       0.270500
     17 C14          9.6750    -9.5290    -4.2270 cd         1 X3L      -0.080300
     18 C18          9.4090   -11.7290    -4.0220 cc         1 X3L       0.288300
     19 C19          9.0580   -13.1040    -3.5680 c3         1 X3L      -0.124400
     20 C25         13.0040    -8.7760    -2.3390 c3         1 X3L      -0.109600
     21 C27         14.1550    -6.7180    -0.2020 c6         1 X3L       0.153500
     22 C29         14.2280    -5.4710     0.6600 c          1 X3L       0.566000
     23 N02         13.0790    -5.1720     1.3220 n          1 X3L      -0.202400
     24 N07          8.4050    -8.1840     0.6360 nu         1 X3L      -0.928900
     25 N09          6.8800    -9.7670     0.0740 nb         1 X3L      -0.246000
     26 N16         10.2950   -10.2180    -5.1940 na         1 X3L      -0.006200
     27 N17         10.1620   -11.5400    -5.0860 nd         1 X3L      -0.522800
     28 N20          8.7040    -9.3190    -1.3750 nb         1 X3L      -0.250000
     29 N23         12.8600    -6.7630    -0.8480 nh         1 X3L      -0.820400
     30 O30         15.2540    -4.8220     0.7700 o          1 X3L      -0.551000
     31 H101         5.5590   -11.2210    -0.5040 h4         1 X3L       0.022100
     32 H151         8.8460    -7.6720    -4.8680 hc         1 X3L       0.061033
     33 H152         9.4450    -7.6710    -3.2130 hc         1 X3L       0.061033
     34 H153        10.5790    -7.6210    -4.5670 hc         1 X3L       0.061033
     35 H211        10.5270    -8.1200    -1.0520 ha         1 X3L       0.156000
     36 H241        11.6920    -7.0980    -2.4810 h1         1 X3L       0.059700
     37 H261        13.4020    -5.4090    -3.0810 hc         1 X3L       0.042033
     38 H263        14.6500    -6.6640    -3.0630 hc         1 X3L       0.042033
     39 H262        13.3220    -6.7680    -4.2040 hc         1 X3L       0.042033
     40 H283        15.4740    -7.8360     1.1060 hc         1 X3L       0.049367
     41 H282        13.7620    -8.0920     1.4520 hc         1 X3L       0.049367
     42 H281        14.5040    -8.8480     0.0410 hc         1 X3L       0.049367
     43 H011        12.1440    -3.4730     2.1030 h1         1 X3L       0.047700
     44 H012        13.0810    -4.4010     3.2850 h1         1 X3L       0.047700
     45 H013        13.9080    -3.4200     2.0750 h1         1 X3L       0.047700
     46 H041        10.9620    -5.3320     2.9890 ha         1 X3L       0.118000
     47 H051         8.9390    -6.6190     2.6270 ha         1 X3L       0.115000
     48 H111         6.7610   -11.7580    -2.6170 ha         1 X3L       0.138000
     49 H192         9.6870   -13.8400    -4.0660 hc         1 X3L       0.051033
     50 H193         9.1910   -13.2130    -2.4910 hc         1 X3L       0.051033
     51 H191         8.0190   -13.3510    -3.7920 hc         1 X3L       0.051033
     52 H252        12.4150    -9.3630    -1.6330 hc         1 X3L       0.042033
     53 H253        12.7490    -9.1130    -3.3450 hc         1 X3L       0.042033
     54 H251        14.0590    -9.0050    -2.1760 hc         1 X3L       0.042033
     55 H271        14.9210    -6.6050    -0.9670 h1         1 X3L       0.088700
     56 H071         7.7810    -8.1090     1.4260 hn         1 X3L       0.510000
     57 H161        10.8310    -9.8310    -5.9560 hn         1 X3L       0.372000
@<TRIPOS>BOND
     1     1    15 ar  
     2     1    25 ar  
     3     1    31 1   
     4     2    16 1   
     5     2    17 2   
     6     2    18 1   
     7     3    17 1   
     8     3    32 1   
     9     3    33 1   
    10     3    34 1   
    11     4     5 ar  
    12     4    13 ar  
    13     4    35 1   
    14     5    10 ar  
    15     5    29 1   
    16     6     7 1   
    17     6    20 1   
    18     6    29 1   
    19     6    36 1   
    20     7    37 1   
    21     7    38 1   
    22     7    39 1   
    23     8    21 1   
    24     8    40 1   
    25     8    41 1   
    26     8    42 1   
    27     9    23 1   
    28     9    43 1   
    29     9    44 1   
    30     9    45 1   
    31    10    11 ar  
    32    10    23 1   
    33    11    12 ar  
    34    11    46 1   
    35    12    13 ar  
    36    12    47 1   
    37    13    24 1   
    38    14    24 1   
    39    14    25 ar  
    40    14    28 ar  
    41    15    16 ar  
    42    15    48 1   
    43    16    28 ar  
    44    17    26 1   
    45    18    19 1   
    46    18    27 2   
    47    19    49 1   
    48    19    50 1   
    49    19    51 1   
    50    20    52 1   
    51    20    53 1   
    52    20    54 1   
    53    21    22 1   
    54    21    29 1   
    55    21    55 1   
    56    22    23 1   
    57    22    30 2   
    58    24    56 1   
    59    26    27 1   
    60    26    57 1   
@<TRIPOS>SUBSTRUCTURE
     1 X3L         1 TEMP              0 ****  ****    0 ROOT
