@<TRIPOS>MOLECULE
X3L
   57    60     1     0     0
SMALL
No Charge or Current Charge


@<TRIPOS>ATOM
      1 C10          6.5430   -11.0570    -0.6330 ca         1 X3L       0.149900
      2 C13          8.7430   -10.2800    -3.6170 cc         1 X3L      -0.293500
      3 C15          9.4520    -7.7390    -3.7240 c3         1 X3L      -0.043800
      4 C21         10.8440    -7.9930     0.1690 ca         1 X3L      -0.188000
      5 C22         11.9340    -7.1110     0.1860 ca         1 X3L       0.312000
      6 C24         13.1510    -8.0110    -1.8420 c3         1 X3L       0.238500
      7 C26         13.3200    -6.8970    -2.8950 c3         1 X3L      -0.109600
      8 C28         14.9000    -7.7940     1.2640 c3         1 X3L      -0.117100
      9 C01         12.8000    -3.5870     1.4070 c3         1 X3L       0.081300
     10 C03         11.8330    -5.8710     0.8760 ca         1 X3L      -0.107000
     11 C04         10.6660    -5.6170     1.6330 ca         1 X3L      -0.086000
     12 C05          9.5810    -6.5060     1.5920 ca         1 X3L      -0.187000
     13 C06          9.6540    -7.6810     0.8360 ca         1 X3L       0.334000
     14 C08          8.0550    -9.4220    -0.1360 ca         1 X3L       0.388900
     15 C11          7.0570   -11.1240    -1.9380 ca         1 X3L      -0.269000
     16 C12          8.1090   -10.2530    -2.2860 ca         1 X3L       0.270500
     17 C14          9.3290    -9.1750    -4.1830 cd         1 X3L      -0.080300
     18 C18          8.8950   -11.3320    -4.5480 cc         1 X3L       0.288300
     19 C19          8.4610   -12.7540    -4.3210 c3         1 X3L      -0.124400
     20 C25         14.1710    -9.1520    -2.0400 c3         1 X3L      -0.109600
     21 C27         14.4100    -6.8930     0.0990 c6         1 X3L       0.153500
     22 C29         14.2870    -5.4230     0.6030 c          1 X3L       0.566000
     23 N02         12.9900    -4.9990     0.9930 n          1 X3L      -0.202400
     24 N07          8.5550    -8.5410     0.8130 nu         1 X3L      -0.928900
     25 N09          7.0420   -10.2000     0.2770 nb         1 X3L      -0.246000
     26 N16          9.7900    -9.6210    -5.4270 na         1 X3L      -0.006200
     27 N17          9.5210   -10.9690    -5.6490 nd         1 X3L      -0.522800
     28 N20          8.6040    -9.4060    -1.3620 nb         1 X3L      -0.250000
     29 N23         13.1430    -7.4750    -0.4570 nh         1 X3L      -0.820400
     30 O30         15.2640    -4.6780     0.6370 o          1 X3L      -0.551000
     31 H101         5.7200   -11.6930    -0.3130 h4         1 X3L       0.022100
     32 H151         8.4820    -7.3470    -3.3960 hc         1 X3L       0.061033
     33 H152        10.1520    -7.6460    -2.8860 hc         1 X3L       0.061033
     34 H153         9.8140    -7.0890    -4.5280 hc         1 X3L       0.061033
     35 H211        10.9400    -8.9470    -0.3320 ha         1 X3L       0.156000
     36 H241        12.1730    -8.4650    -2.0470 h1         1 X3L       0.059700
     37 H261        12.5520    -6.1260    -2.7630 hc         1 X3L       0.042033
     38 H263        14.3040    -6.4200    -2.8150 hc         1 X3L       0.042033
     39 H262        13.2190    -7.3070    -3.9060 hc         1 X3L       0.042033
     40 H283        15.8500    -7.4280     1.6710 hc         1 X3L       0.049367
     41 H282        14.1710    -7.8170     2.0830 hc         1 X3L       0.049367
     42 H281        15.0590    -8.8240     0.9270 hc         1 X3L       0.049367
     43 H011        11.8300    -3.2190     1.0520 h1         1 X3L       0.047700
     44 H012        12.8350    -3.5180     2.5020 h1         1 X3L       0.047700
     45 H013        13.5770    -2.9400     0.9820 h1         1 X3L       0.047700
     46 H041        10.5800    -4.7260     2.2520 ha         1 X3L       0.118000
     47 H051         8.6790    -6.2750     2.1520 ha         1 X3L       0.115000
     48 H111         6.6180   -11.8070    -2.6540 ha         1 X3L       0.138000
     49 H192         9.0320   -13.4440    -4.9540 hc         1 X3L       0.051033
     50 H193         8.6240   -13.0570    -3.2810 hc         1 X3L       0.051033
     51 H191         7.4010   -12.8820    -4.5640 hc         1 X3L       0.051033
     52 H252        14.0070    -9.9440    -1.3000 hc         1 X3L       0.042033
     53 H253        14.0620    -9.5930    -3.0370 hc         1 X3L       0.042033
     54 H251        15.2020    -8.7920    -1.9400 hc         1 X3L       0.042033
     55 H271        15.1980    -6.8650    -0.6680 h1         1 X3L       0.088700
     56 H071         7.9280    -8.4290     1.6090 hn         1 X3L       0.510000
     57 H161        10.2710    -9.0550    -6.1250 hn         1 X3L       0.372000
@<TRIPOS>BOND
     1     1    15 ar  
     2     1    25 ar  
     3     1    31 1   
     4     2    16 1   
     5     2    17 2   
     6     2    18 1   
     7     3    17 1   
     8     3    32 1   
     9     3    33 1   
    10     3    34 1   
    11     4     5 ar  
    12     4    13 ar  
    13     4    35 1   
    14     5    10 ar  
    15     5    29 1   
    16     6     7 1   
    17     6    20 1   
    18     6    29 1   
    19     6    36 1   
    20     7    37 1   
    21     7    38 1   
    22     7    39 1   
    23     8    21 1   
    24     8    40 1   
    25     8    41 1   
    26     8    42 1   
    27     9    23 1   
    28     9    43 1   
    29     9    44 1   
    30     9    45 1   
    31    10    11 ar  
    32    10    23 1   
    33    11    12 ar  
    34    11    46 1   
    35    12    13 ar  
    36    12    47 1   
    37    13    24 1   
    38    14    24 1   
    39    14    25 ar  
    40    14    28 ar  
    41    15    16 ar  
    42    15    48 1   
    43    16    28 ar  
    44    17    26 1   
    45    18    19 1   
    46    18    27 2   
    47    19    49 1   
    48    19    50 1   
    49    19    51 1   
    50    20    52 1   
    51    20    53 1   
    52    20    54 1   
    53    21    22 1   
    54    21    29 1   
    55    21    55 1   
    56    22    23 1   
    57    22    30 2   
    58    24    56 1   
    59    26    27 1   
    60    26    57 1   
@<TRIPOS>SUBSTRUCTURE
     1 X3L         1 TEMP              0 ****  ****    0 ROOT
