@<TRIPOS>MOLECULE
X3M
   41    41     1     0     0
SMALL
abcg2


@<TRIPOS>ATOM
      1 C11        157.1050   158.1360   144.9380 c3         1 X3M      -0.054100
      2 C10        155.2040   156.9700   148.0280 ca         1 X3M      -0.119000
      3 C12        156.9770   159.6530   144.7700 c3         1 X3M      -0.037400
      4 C18        157.5960   161.7840   143.6290 c          1 X3M       0.685000
      5 C14        156.5220   159.9900   142.2550 c3         1 X3M      -0.184400
      6 C01        156.1670   157.8540   151.3770 c3         1 X3M      -0.076767
      7 C03        154.4310   156.2160   150.6990 c3         1 X3M      -0.076767
      8 C04        156.7890   155.4730   150.9010 c3         1 X3M      -0.076767
      9 C05        156.1690   157.0090   149.0300 ca         1 X3M      -0.118300
     10 C06        157.4540   157.4120   148.6530 ca         1 X3M      -0.119000
     11 C07        157.7530   157.7600   147.3470 ca         1 X3M      -0.117000
     12 C08        156.7830   157.7200   146.3460 ca         1 X3M      -0.018300
     13 C09        155.5050   157.3190   146.7140 ca         1 X3M      -0.117000
     14 C13        157.4800   160.2390   143.4370 c3         1 X3M       0.067000
     15 O19        156.5710   162.4280   143.8980 o          1 X3M      -0.743500
     16 O20        158.7600   162.2370   143.4950 o          1 X3M      -0.743500
     17 O21        158.7750   159.7620   143.1620 oh         1 X3M      -0.694000
     18 H112       156.4350   157.6230   144.2490 hc         1 X3M       0.079200
     19 H111       158.1230   157.8270   144.6930 hc         1 X3M       0.079200
     20 H101       154.1910   156.6640   148.2530 ha         1 X3M       0.085500
     21 H122       157.5440   160.1230   145.5830 hc         1 X3M       0.023200
     22 H121       155.9350   159.9460   144.9220 hc         1 X3M       0.023200
     23 H141       156.9380   160.5170   141.3880 hc         1 X3M       0.024700
     24 H142       155.5740   160.4750   142.4930 hc         1 X3M       0.024700
     25 H013       155.9680   157.6120   152.4230 hc         1 X3M       0.025811
     26 H012       157.2060   158.1790   151.3070 hc         1 X3M       0.025811
     27 H011       155.5340   158.6990   151.1020 hc         1 X3M       0.025811
     28 H033       154.2760   155.9660   151.7500 hc         1 X3M       0.025811
     29 H032       153.7280   157.0120   150.4470 hc         1 X3M       0.025811
     30 H031       154.1670   155.3340   150.1120 hc         1 X3M       0.025811
     31 H043       156.5980   155.1970   151.9400 hc         1 X3M       0.025811
     32 H042       156.6050   154.5940   150.2810 hc         1 X3M       0.025811
     33 H041       157.8470   155.7260   150.8180 hc         1 X3M       0.025811
     34 H061       158.2450   157.4570   149.3920 ha         1 X3M       0.085500
     35 H071       158.7640   158.0640   147.0970 ha         1 X3M       0.122500
     36 H091       154.7230   157.2730   145.9640 ha         1 X3M       0.122500
     37 H211       159.2940   160.5920   143.1960 ho         1 X3M       0.454000
     38 C15        156.2640   158.5250   141.8520 c          1 X3M       0.712000
     39 O16        155.1380   158.0540   142.1340 o          1 X3M      -0.769000
     40 O17        157.1830   157.9250   141.2590 o          1 X3M      -0.769000
     41 C02        155.8840   156.6390   150.4820 c3         1 X3M       0.012300
@<TRIPOS>BOND
     1     1     3 1   
     2     1    12 1   
     3     1    18 1   
     4     1    19 1   
     5     2     9 ar  
     6     2    13 ar  
     7     2    20 1   
     8     3    14 1   
     9     3    21 1   
    10     3    22 1   
    11     4    14 1   
    12     4    15 1   
    13     4    16 1   
    14     5    14 1   
    15     5    23 1   
    16     5    24 1   
    17     5    38 1   
    18     6    25 1   
    19     6    26 1   
    20     6    27 1   
    21     6    41 1   
    22     7    28 1   
    23     7    29 1   
    24     7    30 1   
    25     7    41 1   
    26     8    31 1   
    27     8    32 1   
    28     8    33 1   
    29     8    41 1   
    30     9    10 ar  
    31     9    41 1   
    32    10    11 ar  
    33    10    34 1   
    34    11    12 ar  
    35    11    35 1   
    36    12    13 ar  
    37    13    36 1   
    38    14    17 1   
    39    17    37 1   
    40    38    39 1   
    41    38    40 1   
@<TRIPOS>SUBSTRUCTURE
     1 X3M         1 TEMP              0 ****  ****    0 ROOT
