@<TRIPOS>MOLECULE
X3M
   41    41     1     0     0
SMALL
No Charge or Current Charge


@<TRIPOS>ATOM
      1 C11        157.4650   158.2090   145.0280 c3         1 X3M      -0.054100
      2 C10        155.3180   156.9370   147.9430 ca         1 X3M      -0.119000
      3 C12        157.1500   159.7050   144.7490 c3         1 X3M      -0.037400
      4 C18        157.7320   161.8250   143.4190 c          1 X3M       0.685000
      5 C14        156.3170   160.0370   142.2660 c3         1 X3M      -0.184400
      6 C01        155.9660   157.8080   151.4320 c3         1 X3M      -0.076767
      7 C03        154.3360   156.0930   150.5830 c3         1 X3M      -0.076767
      8 C04        156.7320   155.4380   150.9630 c3         1 X3M      -0.076767
      9 C05        156.2120   157.0050   149.0420 ca         1 X3M      -0.118300
     10 C06        157.5220   157.4770   148.7940 ca         1 X3M      -0.119000
     11 C07        157.9260   157.8630   147.5050 ca         1 X3M      -0.117000
     12 C08        157.0310   157.7880   146.4250 ca         1 X3M      -0.018300
     13 C09        155.7250   157.3240   146.6550 ca         1 X3M      -0.117000
     14 C13        157.4650   160.2600   143.3140 c3         1 X3M       0.067000
     15 O19        156.9370   162.5420   144.0140 o          1 X3M      -0.743500
     16 O20        158.7850   162.2470   142.9510 o          1 X3M      -0.743500
     17 O21        158.6670   159.6220   142.8120 oh         1 X3M      -0.694000
     18 H112       156.9810   157.5700   144.2840 hc         1 X3M       0.079200
     19 H111       158.5410   158.0370   144.9110 hc         1 X3M       0.079200
     20 H101       154.2980   156.5860   148.0620 ha         1 X3M       0.085500
     21 H122       157.7280   160.2880   145.4780 hc         1 X3M       0.023200
     22 H121       156.0960   159.9000   144.9830 hc         1 X3M       0.023200
     23 H141       156.7350   160.3590   141.3040 hc         1 X3M       0.024700
     24 H142       155.4900   160.6730   142.6050 hc         1 X3M       0.024700
     25 H013       155.6560   157.5530   152.4530 hc         1 X3M       0.025811
     26 H012       157.0060   158.1510   151.4790 hc         1 X3M       0.025811
     27 H011       155.3480   158.6470   151.0900 hc         1 X3M       0.025811
     28 H033       154.0900   155.8090   151.6140 hc         1 X3M       0.025811
     29 H032       153.6320   156.8790   150.2820 hc         1 X3M       0.025811
     30 H031       154.1710   155.2130   149.9500 hc         1 X3M       0.025811
     31 H043       156.4490   155.1000   151.9670 hc         1 X3M       0.025811
     32 H042       156.6640   154.5790   150.2850 hc         1 X3M       0.025811
     33 H041       157.7810   155.7530   151.0050 hc         1 X3M       0.025811
     34 H061       158.2430   157.5500   149.6030 ha         1 X3M       0.085500
     35 H071       158.9400   158.2250   147.3460 ha         1 X3M       0.122500
     36 H091       155.0190   157.2650   145.8290 ha         1 X3M       0.122500
     37 H211       159.2600   160.3850   142.6030 ho         1 X3M       0.454000
     38 C15        155.8070   158.5890   142.1490 c          1 X3M       0.712000
     39 O16        154.8460   158.2590   142.8280 o          1 X3M      -0.769000
     40 O17        156.3270   157.8460   141.3280 o          1 X3M      -0.769000
     41 C02        155.8070   156.5890   150.4820 c3         1 X3M       0.012300
@<TRIPOS>BOND
     1     1     3 1   
     2     1    12 1   
     3     1    18 1   
     4     1    19 1   
     5     2     9 ar  
     6     2    13 ar  
     7     2    20 1   
     8     3    14 1   
     9     3    21 1   
    10     3    22 1   
    11     4    14 1   
    12     4    15 1   
    13     4    16 1   
    14     5    14 1   
    15     5    23 1   
    16     5    24 1   
    17     5    38 1   
    18     6    25 1   
    19     6    26 1   
    20     6    27 1   
    21     6    41 1   
    22     7    28 1   
    23     7    29 1   
    24     7    30 1   
    25     7    41 1   
    26     8    31 1   
    27     8    32 1   
    28     8    33 1   
    29     8    41 1   
    30     9    10 ar  
    31     9    41 1   
    32    10    11 ar  
    33    10    34 1   
    34    11    12 ar  
    35    11    35 1   
    36    12    13 ar  
    37    13    36 1   
    38    14    17 1   
    39    17    37 1   
    40    38    39 1   
    41    38    40 1   
@<TRIPOS>SUBSTRUCTURE
     1 X3M         1 TEMP              0 ****  ****    0 ROOT
