@<TRIPOS>MOLECULE
X3N
   48    51     1     0     0
SMALL
No Charge or Current Charge


@<TRIPOS>ATOM
      1 C4         -20.8010    16.5080    32.1600 c          1 X3N       0.583100
      2 C11        -16.5530    14.1130    29.6110 ca         1 X3N      -0.230500
      3 C8         -17.7550    15.5920    31.7300 ca         1 X3N       0.355000
      4 C9         -18.3130    14.3830    31.3140 ca         1 X3N      -0.207000
      5 C10        -17.7230    13.6540    30.2710 ca         1 X3N      -0.007000
      6 C12        -16.0150    15.3660    30.0340 ca         1 X3N       0.180100
      7 C13        -16.6120    16.0690    31.0920 ca         1 X3N      -0.223000
      8 C1         -19.8690    17.2630    34.4450 c3         1 X3N      -0.102100
      9 C2         -19.7170    16.2650    33.2770 c3         1 X3N       0.148500
     10 O5         -21.6470    15.6820    31.8480 o          1 X3N      -0.611100
     11 N6         -20.7630    17.7030    31.5240 nt         1 X3N      -0.593000
     12 N7         -18.3110    16.3360    32.7700 nu         1 X3N      -0.986200
     13 O14        -14.9150    15.9960    29.4930 os         1 X3N      -0.359100
     14 C15        -14.4280    15.7850    28.1630 c3         1 X3N       0.148600
     15 C16        -13.7730    14.4080    28.1120 c3         1 X3N       0.042600
     16 N17        -14.7630    13.3530    27.9340 na         1 X3N      -0.160500
     17 C18        -15.9950    13.2430    28.5530 cc         1 X3N       0.513000
     18 N19        -16.6260    12.1710    28.0960 nd         1 X3N      -0.737000
     19 C20        -15.8030    11.5800    27.1700 cd         1 X3N       0.386900
     20 C21        -14.6420    12.2980    27.0560 cc         1 X3N      -0.230000
     21 N22        -16.1210    10.4300    26.4650 n          1 X3N      -0.404300
     22 C23        -17.3990     9.7250    26.6780 c5         1 X3N       0.038700
     23 C25        -17.3790     8.8000    25.4260 c5         1 X3N       0.149600
     24 O26        -15.9950     8.7430    25.0030 os         1 X3N      -0.405100
     25 C27        -15.3170     9.8090    25.5120 c          1 X3N       0.709100
     26 O28        -14.1860    10.1240    25.1760 o          1 X3N      -0.521000
     27 C29        -17.4640     8.9700    28.0320 c3         1 X3N       0.153300
     28 F30        -18.6260     8.2860    28.1510 f          1 X3N      -0.122000
     29 F31        -16.4600     8.0690    28.1550 f          1 X3N      -0.122000
     30 H1         -19.1980    13.9880    31.8010 ha         1 X3N       0.129000
     31 H2         -18.1860    12.7090    29.9920 ha         1 X3N       0.138000
     32 H4         -16.1790    17.0130    31.4060 ha         1 X3N       0.126000
     33 H5         -19.1680    17.0210    35.2530 hc         1 X3N       0.053700
     34 H6         -19.6790    18.2930    34.1200 hc         1 X3N       0.053700
     35 H7         -20.8850    17.2160    34.8550 hc         1 X3N       0.053700
     36 H3         -19.9120    15.2590    33.6740 h1         1 X3N       0.079700
     37 H8         -21.4300    17.8980    30.7920 hn         1 X3N       0.322500
     38 H9         -20.0390    18.3670    31.7540 hn         1 X3N       0.322500
     39 H10        -17.7600    17.1490    33.0540 hn         1 X3N       0.487000
     40 H11        -13.6670    16.5400    27.9290 h1         1 X3N       0.071200
     41 H12        -15.2290    15.8710    27.4170 h1         1 X3N       0.071200
     42 H13        -13.2010    14.2260    29.0300 h1         1 X3N       0.074200
     43 H14        -13.0750    14.3800    27.2650 h1         1 X3N       0.074200
     44 H15        -13.7680    12.1540    26.4370 h4         1 X3N       0.186000
     45 H24        -18.2490    10.4200    26.6310 h1         1 X3N       0.107700
     46 H16        -17.9700     9.2410    24.6120 h1         1 X3N       0.081700
     47 H17        -17.7600     7.7880    25.6190 h1         1 X3N       0.081700
     48 H18        -17.3950     9.6890    28.8550 h2         1 X3N       0.096700
@<TRIPOS>BOND
     1     1     9 1   
     2     1    10 2   
     3     1    11 1   
     4     2     5 ar  
     5     2     6 ar  
     6     2    17 1   
     7     3     4 ar  
     8     3     7 ar  
     9     3    12 1   
    10     4     5 ar  
    11     4    30 1   
    12     5    31 1   
    13     6     7 ar  
    14     6    13 1   
    15     7    32 1   
    16     8     9 1   
    17     8    33 1   
    18     8    34 1   
    19     8    35 1   
    20     9    12 1   
    21     9    36 1   
    22    11    37 1   
    23    11    38 1   
    24    12    39 1   
    25    13    14 1   
    26    14    15 1   
    27    14    40 1   
    28    14    41 1   
    29    15    16 1   
    30    15    42 1   
    31    15    43 1   
    32    16    17 1   
    33    16    20 1   
    34    17    18 2   
    35    18    19 1   
    36    19    20 2   
    37    19    21 1   
    38    20    44 1   
    39    21    22 1   
    40    21    25 1   
    41    22    23 1   
    42    22    27 1   
    43    22    45 1   
    44    23    24 1   
    45    23    46 1   
    46    23    47 1   
    47    24    25 1   
    48    25    26 2   
    49    27    28 1   
    50    27    29 1   
    51    27    48 1   
@<TRIPOS>SUBSTRUCTURE
     1 X3N         1 TEMP              0 ****  ****    0 ROOT
