@<TRIPOS>MOLECULE
X3N
   48    51     1     0     0
SMALL
abcg2


@<TRIPOS>ATOM
      1 C4         -20.9480    16.5130    32.2750 c          1 X3N       0.583100
      2 C11        -16.5510    14.2510    29.4610 ca         1 X3N      -0.230500
      3 C8         -17.8590    15.7600    31.5010 ca         1 X3N       0.355000
      4 C9         -18.5170    14.6960    30.8590 ca         1 X3N      -0.207000
      5 C10        -17.8670    13.9790    29.8770 ca         1 X3N      -0.007000
      6 C12        -15.9200    15.3440    30.0910 ca         1 X3N       0.180100
      7 C13        -16.5600    16.0680    31.0850 ca         1 X3N      -0.223000
      8 C1         -19.8140    16.8750    34.4670 c3         1 X3N      -0.102100
      9 C2         -19.7080    16.1680    33.1150 c3         1 X3N       0.148500
     10 O5         -22.0260    15.9700    32.5140 o          1 X3N      -0.611100
     11 N6         -20.7770    17.4450    31.3280 nt         1 X3N      -0.593000
     12 N7         -18.4600    16.5210    32.4760 nu         1 X3N      -0.986200
     13 O14        -14.6430    15.7560    29.8230 os         1 X3N      -0.359100
     14 C15        -14.2140    15.7640    28.4610 c3         1 X3N       0.148600
     15 C16        -13.6860    14.4200    28.0320 c3         1 X3N       0.042600
     16 N17        -14.7420    13.4310    27.8660 na         1 X3N      -0.160500
     17 C18        -15.9630    13.3450    28.4730 cc         1 X3N       0.513000
     18 N19        -16.6050    12.2560    28.0370 nd         1 X3N      -0.737000
     19 C20        -15.7750    11.6490    27.1480 cd         1 X3N       0.386900
     20 C21        -14.6040    12.3480    27.0170 cc         1 X3N      -0.230000
     21 N22        -16.1890    10.4740    26.5140 n          1 X3N      -0.404300
     22 C23        -17.4200     9.7810    26.8560 c5         1 X3N       0.038700
     23 C25        -17.5130     8.7690    25.7050 c5         1 X3N       0.149600
     24 O26        -16.1870     8.7410    25.1280 os         1 X3N      -0.405100
     25 C27        -15.4750     9.8090    25.5590 c          1 X3N       0.709100
     26 O28        -14.3780    10.0850    25.1300 o          1 X3N      -0.521000
     27 C29        -17.3250     9.1280    28.2290 c3         1 X3N       0.153300
     28 F30        -18.5010     8.4710    28.4860 f          1 X3N      -0.122000
     29 F31        -16.3320     8.1780    28.2370 f          1 X3N      -0.122000
     30 H1         -19.5290    14.4280    31.1240 ha         1 X3N       0.129000
     31 H2         -18.3810    13.1540    29.4040 ha         1 X3N       0.138000
     32 H4         -16.0280    16.8970    31.5340 ha         1 X3N       0.126000
     33 H5         -19.0040    16.5490    35.1200 hc         1 X3N       0.053700
     34 H6         -19.7480    17.9570    34.3370 hc         1 X3N       0.053700
     35 H7         -20.7640    16.6360    34.9410 hc         1 X3N       0.053700
     36 H3         -19.7600    15.0870    33.2790 h1         1 X3N       0.079700
     37 H8         -21.5540    17.7330    30.7550 hn         1 X3N       0.322500
     38 H9         -19.8630    17.8330    31.1580 hn         1 X3N       0.322500
     39 H10        -17.8590    17.1500    32.9840 hn         1 X3N       0.487000
     40 H11        -13.4050    16.4910    28.4120 h1         1 X3N       0.071200
     41 H12        -15.0290    16.0960    27.8130 h1         1 X3N       0.071200
     42 H13        -12.9570    14.0630    28.7620 h1         1 X3N       0.074200
     43 H14        -13.1810    14.5250    27.0710 h1         1 X3N       0.074200
     44 H15        -13.7230    12.1950    26.4240 h4         1 X3N       0.186000
     45 H24        -18.2680    10.4640    26.8720 h1         1 X3N       0.107700
     46 H16        -18.2130     9.1000    24.9390 h1         1 X3N       0.081700
     47 H17        -17.7650     7.7650    26.0330 h1         1 X3N       0.081700
     48 H18        -17.1320     9.8310    29.0360 h2         1 X3N       0.096700
@<TRIPOS>BOND
     1     1     9 1   
     2     1    10 2   
     3     1    11 1   
     4     2     5 ar  
     5     2     6 ar  
     6     2    17 1   
     7     3     4 ar  
     8     3     7 ar  
     9     3    12 1   
    10     4     5 ar  
    11     4    30 1   
    12     5    31 1   
    13     6     7 ar  
    14     6    13 1   
    15     7    32 1   
    16     8     9 1   
    17     8    33 1   
    18     8    34 1   
    19     8    35 1   
    20     9    12 1   
    21     9    36 1   
    22    11    37 1   
    23    11    38 1   
    24    12    39 1   
    25    13    14 1   
    26    14    15 1   
    27    14    40 1   
    28    14    41 1   
    29    15    16 1   
    30    15    42 1   
    31    15    43 1   
    32    16    17 1   
    33    16    20 1   
    34    17    18 2   
    35    18    19 1   
    36    19    20 2   
    37    19    21 1   
    38    20    44 1   
    39    21    22 1   
    40    21    25 1   
    41    22    23 1   
    42    22    27 1   
    43    22    45 1   
    44    23    24 1   
    45    23    46 1   
    46    23    47 1   
    47    24    25 1   
    48    25    26 2   
    49    27    28 1   
    50    27    29 1   
    51    27    48 1   
@<TRIPOS>SUBSTRUCTURE
     1 X3N         1 TEMP              0 ****  ****    0 ROOT
