@<TRIPOS>MOLECULE
X3R
   52    56     1     0     0
SMALL
abcg2


@<TRIPOS>ATOM
      1 C4         -16.1080    15.2830    30.0360 ca         1 X3R       0.179100
      2 C5         -16.7950    16.0220    30.9890 ca         1 X3R      -0.220000
      3 C6         -18.1340    15.7670    31.2970 ca         1 X3R       0.348000
      4 C11        -21.1740    16.3440    35.1410 cx         1 X3R      -0.116900
      5 C8         -20.0790    16.1950    32.7780 c3         1 X3R       0.173500
      6 C10        -20.2900    16.9320    34.0820 cx         1 X3R      -0.155700
      7 C12        -19.6820    16.3740    35.3410 cx         1 X3R      -0.116900
      8 C13        -21.2390    16.5300    31.8250 c          1 X3R       0.592100
      9 C3         -16.7340    14.2250    29.3460 ca         1 X3R      -0.229500
     10 C1         -18.7850    14.7420    30.5890 ca         1 X3R      -0.206000
     11 C2         -18.0900    14.0070    29.6520 ca         1 X3R      -0.006000
     12 N7         -18.7810    16.5430    32.2330 nu         1 X3R      -0.972200
     13 O14        -22.3030    15.9180    31.8970 o          1 X3R      -0.610100
     14 N15        -21.0160    17.5400    30.9740 nt         1 X3R      -0.593000
     15 O16        -14.8020    15.6520    29.8750 os         1 X3R      -0.358100
     16 C17        -14.2440    15.6160    28.5610 c3         1 X3R       0.149600
     17 C18        -13.7470    14.2410    28.1950 c3         1 X3R       0.042600
     18 N19        -14.8330    13.3130    27.9160 na         1 X3R      -0.160500
     19 C20        -16.1110    13.2970    28.4000 cc         1 X3R       0.513000
     20 N21        -16.7720    12.2540    27.8890 nd         1 X3R      -0.717000
     21 C22        -15.8950    11.6000    27.0850 cd         1 X3R       0.381900
     22 C23        -14.6770    12.2250    27.0780 cc         1 X3R      -0.220000
     23 N24        -16.3050    10.4510    26.3940 n          1 X3R      -0.405300
     24 C25        -17.4290     9.6310    26.7960 c5         1 X3R       0.030700
     25 C27        -17.6770     8.8310    25.5100 c5         1 X3R       0.148600
     26 O28        -16.4320     8.9260    24.7840 os         1 X3R      -0.405100
     27 C29        -15.7040     9.9640    25.2630 c          1 X3R       0.709100
     28 O30        -14.6880    10.3530    24.7380 o          1 X3R      -0.508000
     29 C31        -17.0710     8.7250    27.9770 c3         1 X3R       0.275000
     30 F32        -16.0230     7.9230    27.6930 f          1 X3R      -0.105667
     31 F33        -16.7480     9.4190    29.0810 f          1 X3R      -0.105667
     32 F34        -18.1130     7.9300    28.2910 f          1 X3R      -0.105667
     33 H1         -16.2650    16.8230    31.4900 ha         1 X3R       0.127000
     34 H3         -21.6340    15.3880    34.9320 hc         1 X3R       0.079450
     35 H9         -20.1500    15.1190    32.9670 h1         1 X3R       0.076700
     36 H4         -20.2980    18.0120    33.9820 hc         1 X3R       0.085700
     37 H5         -19.1440    15.4380    35.2590 hc         1 X3R       0.079450
     38 H6         -19.2710    17.0730    36.0570 hc         1 X3R       0.079450
     39 H7         -19.8240    14.5090    30.7740 ha         1 X3R       0.130000
     40 H8         -18.5970    13.2070    29.1320 ha         1 X3R       0.140000
     41 H10        -18.1860    17.0770    32.8480 hn         1 X3R       0.485000
     42 H11        -21.7350    17.8280    30.3290 hn         1 X3R       0.322500
     43 H12        -20.1030    17.9640    30.9220 hn         1 X3R       0.322500
     44 H13        -13.3970    16.3000    28.5870 h1         1 X3R       0.071200
     45 H14        -14.9730    15.9810    27.8340 h1         1 X3R       0.071200
     46 H15        -13.1220    13.8500    29.0010 h1         1 X3R       0.074200
     47 H16        -13.1360    14.3100    27.2940 h1         1 X3R       0.074200
     48 H17        -13.7540    12.0230    26.5680 h4         1 X3R       0.182000
     49 H26        -18.2880    10.2300    27.0880 h1         1 X3R       0.123700
     50 H18        -18.4650     9.2900    24.9150 h1         1 X3R       0.085200
     51 H19        -17.8980     7.7820    25.6800 h1         1 X3R       0.085200
     52 H2         -21.7840    17.0240    35.7200 hc         1 X3R       0.079450
@<TRIPOS>BOND
     1     1     2 ar  
     2     1     9 ar  
     3     1    15 1   
     4     2     3 ar  
     5     2    33 1   
     6     3    10 ar  
     7     3    12 1   
     8     4     6 1   
     9     4     7 1   
    10     4    34 1   
    11     4    52 1   
    12     5     6 1   
    13     5     8 1   
    14     5    12 1   
    15     5    35 1   
    16     6     7 1   
    17     6    36 1   
    18     7    37 1   
    19     7    38 1   
    20     8    13 2   
    21     8    14 1   
    22     9    11 ar  
    23     9    19 1   
    24    10    11 ar  
    25    10    39 1   
    26    11    40 1   
    27    12    41 1   
    28    14    42 1   
    29    14    43 1   
    30    15    16 1   
    31    16    17 1   
    32    16    44 1   
    33    16    45 1   
    34    17    18 1   
    35    17    46 1   
    36    17    47 1   
    37    18    19 1   
    38    18    22 1   
    39    19    20 2   
    40    20    21 1   
    41    21    22 2   
    42    21    23 1   
    43    22    48 1   
    44    23    24 1   
    45    23    27 1   
    46    24    25 1   
    47    24    29 1   
    48    24    49 1   
    49    25    26 1   
    50    25    50 1   
    51    25    51 1   
    52    26    27 1   
    53    27    28 2   
    54    29    30 1   
    55    29    31 1   
    56    29    32 1   
@<TRIPOS>SUBSTRUCTURE
     1 X3R         1 TEMP              0 ****  ****    0 ROOT
