@<TRIPOS>MOLECULE
X3R
   52    56     1     0     0
SMALL
No Charge or Current Charge


@<TRIPOS>ATOM
      1 C4         -16.1850    15.3170    29.9270 ca         1 X3R       0.179100
      2 C5         -16.8660    16.0470    30.9140 ca         1 X3R      -0.220000
      3 C6         -18.0960    15.6270    31.4140 ca         1 X3R       0.348000
      4 C11        -21.1940    16.8630    35.3050 cx         1 X3R      -0.116900
      5 C8         -20.0600    16.1680    33.0230 c3         1 X3R       0.173500
      6 C10        -20.2100    17.1420    34.1900 cx         1 X3R      -0.155700
      7 C12        -19.7090    16.7900    35.5740 cx         1 X3R      -0.116900
      8 C13        -21.2820    16.2840    32.0340 c          1 X3R       0.592100
      9 C3         -16.7320    14.0930    29.4370 ca         1 X3R      -0.229500
     10 C1         -18.6620    14.4480    30.9260 ca         1 X3R      -0.206000
     11 C2         -17.9920    13.6930    29.9530 ca         1 X3R      -0.006000
     12 N7         -18.7280    16.4020    32.3860 nu         1 X3R      -0.972200
     13 O14        -22.3230    15.6540    32.1600 o          1 X3R      -0.610100
     14 N15        -21.1360    17.1410    30.9950 nt         1 X3R      -0.593000
     15 O16        -14.9990    15.8920    29.5230 os         1 X3R      -0.358100
     16 C17        -14.3670    15.6530    28.2610 c3         1 X3R       0.149600
     17 C18        -13.7830    14.2440    28.2820 c3         1 X3R       0.042600
     18 N19        -14.7980    13.2430    27.9790 na         1 X3R      -0.160500
     19 C20        -16.0990    13.1980    28.4450 cc         1 X3R       0.513000
     20 N21        -16.7270    12.1650    27.9050 nd         1 X3R      -0.717000
     21 C22        -15.8310    11.5280    27.0830 cd         1 X3R       0.381900
     22 C23        -14.6280    12.1840    27.1140 cc         1 X3R      -0.220000
     23 N24        -16.1190    10.3970    26.3340 n          1 X3R      -0.405300
     24 C25        -17.4070     9.6780    26.4650 c5         1 X3R       0.030700
     25 C27        -17.3840     8.9310    25.0990 c5         1 X3R       0.148600
     26 O28        -15.9850     8.8450    24.7340 os         1 X3R      -0.405100
     27 C29        -15.2990     9.8480    25.3500 c          1 X3R       0.709100
     28 O30        -14.1590    10.1750    25.0630 o          1 X3R      -0.508000
     29 C31        -17.4900     8.7190    27.6910 c3         1 X3R       0.275000
     30 F32        -16.4590     7.8430    27.7190 f          1 X3R      -0.105667
     31 F33        -17.4770     9.3880    28.8650 f          1 X3R      -0.105667
     32 F34        -18.6310     7.9930    27.6650 f          1 X3R      -0.105667
     33 H1         -16.4260    16.9690    31.2820 ha         1 X3R       0.127000
     34 H3         -21.7490    15.9280    35.2800 hc         1 X3R       0.079450
     35 H9         -20.0920    15.1460    33.4250 h1         1 X3R       0.076700
     36 H4         -20.1250    18.1820    33.8810 hc         1 X3R       0.085700
     37 H5         -19.2680    15.8070    35.7240 hc         1 X3R       0.079450
     38 H6         -19.2610    17.5830    36.1680 hc         1 X3R       0.079450
     39 H7         -19.6170    14.0950    31.3000 ha         1 X3R       0.130000
     40 H8         -18.4640    12.7720    29.6160 ha         1 X3R       0.140000
     41 H10        -18.1800    17.1850    32.7460 hn         1 X3R       0.485000
     42 H11        -21.8810    17.2490    30.3240 hn         1 X3R       0.322500
     43 H12        -20.2550    17.6190    30.8840 hn         1 X3R       0.322500
     44 H13        -13.5450    16.3670    28.1240 h1         1 X3R       0.071200
     45 H14        -15.0660    15.7800    27.4240 h1         1 X3R       0.071200
     46 H15        -13.3380    14.0320    29.2630 h1         1 X3R       0.074200
     47 H16        -12.9890    14.1790    27.5270 h1         1 X3R       0.074200
     48 H17        -13.6920    11.9900    26.6090 h4         1 X3R       0.182000
     49 H26        -18.2570    10.3720    26.5130 h1         1 X3R       0.123700
     50 H18        -17.9050     9.5180    24.3310 h1         1 X3R       0.085200
     51 H19        -17.8330     7.9290    25.1310 h1         1 X3R       0.085200
     52 H2         -21.7430    17.7050    35.7200 hc         1 X3R       0.079450
@<TRIPOS>BOND
     1     1     2 ar  
     2     1     9 ar  
     3     1    15 1   
     4     2     3 ar  
     5     2    33 1   
     6     3    10 ar  
     7     3    12 1   
     8     4     6 1   
     9     4     7 1   
    10     4    34 1   
    11     4    52 1   
    12     5     6 1   
    13     5     8 1   
    14     5    12 1   
    15     5    35 1   
    16     6     7 1   
    17     6    36 1   
    18     7    37 1   
    19     7    38 1   
    20     8    13 2   
    21     8    14 1   
    22     9    11 ar  
    23     9    19 1   
    24    10    11 ar  
    25    10    39 1   
    26    11    40 1   
    27    12    41 1   
    28    14    42 1   
    29    14    43 1   
    30    15    16 1   
    31    16    17 1   
    32    16    44 1   
    33    16    45 1   
    34    17    18 1   
    35    17    46 1   
    36    17    47 1   
    37    18    19 1   
    38    18    22 1   
    39    19    20 2   
    40    20    21 1   
    41    21    22 2   
    42    21    23 1   
    43    22    48 1   
    44    23    24 1   
    45    23    27 1   
    46    24    25 1   
    47    24    29 1   
    48    24    49 1   
    49    25    26 1   
    50    25    50 1   
    51    25    51 1   
    52    26    27 1   
    53    27    28 2   
    54    29    30 1   
    55    29    31 1   
    56    29    32 1   
@<TRIPOS>SUBSTRUCTURE
     1 X3R         1 TEMP              0 ****  ****    0 ROOT
