@<TRIPOS>MOLECULE
X3S
   47    50     1     0     0
SMALL
bcc


@<TRIPOS>ATOM
      1 C2          17.3580    11.9950    35.1340 ca         1 X3S      -0.136000
      2 C1          17.4390    12.1230    36.5130 ca         1 X3S      -0.089000
      3 C4          19.7810    11.9490    35.0050 ca         1 X3S      -0.009400
      4 C5          19.8100    12.0750    36.3900 ca         1 X3S       0.139900
      5 C6          18.6660    12.1680    37.1560 ca         1 X3S      -0.166000
      6 C3          18.5260    11.9170    34.3930 ca         1 X3S       0.038400
      7 C10         20.4570     7.1680    33.6920 cc         1 X3S       0.273200
      8 C11         23.1040     5.7180    32.0480 cc         1 X3S      -0.028200
      9 C12         23.8360     6.0250    30.9300 cd         1 X3S      -0.075400
     10 C13         24.2470     3.7330    31.7900 cd         1 X3S      -0.164700
     11 C14         23.3330     4.4090    32.5410 cc         1 X3S      -0.090000
     12 C15         24.8070     2.3750    31.8990 c          1 X3S       0.710700
     13 C16         24.9020     0.2830    33.0980 cy         1 X3S       0.052700
     14 C17         24.5300    -0.3920    34.4200 cy         1 X3S       0.104900
     15 C18         26.3440     0.1410    33.6050 cy         1 X3S       0.104900
     16 C19         23.8470     7.2800    30.1260 c3         1 X3S      -0.029800
     17 C7          21.5430    10.7350    33.7790 c          1 X3S       0.809100
     18 C8          21.2330     8.3360    33.5540 cc         1 X3S      -0.113700
     19 C9          22.3660     7.9260    32.8910 cd         1 X3S      -0.131300
     20 F1          21.0040    12.1070    36.9840 f          1 X3S      -0.124900
     21 N1          20.9730    11.8780    34.2730 ns         1 X3S      -0.506100
     22 N2          20.8590     9.5860    34.0270 ns         1 X3S      -0.452100
     23 N3          22.2050     6.5940    32.6710 na         1 X3S       0.193300
     24 N4          21.0590     6.1280    33.1560 nd         1 X3S      -0.502800
     25 N5          24.3870     1.6120    32.9190 ns         1 X3S      -0.551900
     26 O1          22.5920    10.7650    33.1570 o          1 X3S      -0.624100
     27 O2          25.6230     1.9830    31.0730 o          1 X3S      -0.607100
     28 O3          25.9060    -0.5690    34.7700 oq         1 X3S      -0.400600
     29 S1          24.8310     4.7000    30.4930 ss         1 X3S       0.066200
     30 CL1         18.4420    11.7650    32.6790 cl         1 X3S      -0.069400
     31 H2          16.3970    11.9620    34.6400 ha         1 X3S       0.158000
     32 H1          16.5290    12.1890    37.0940 ha         1 X3S       0.146000
     33 H3          18.7350    12.2660    38.2310 ha         1 X3S       0.160000
     34 H7          19.4900     7.0670    34.1630 h4         1 X3S       0.038100
     35 H8          22.8280     4.0150    33.4130 ha         1 X3S       0.166000
     36 H10         24.6920    -0.3270    32.2180 h1         1 X3S       0.086700
     37 H11         23.9920    -1.3380    34.3300 h1         1 X3S       0.060450
     38 H13         27.0090    -0.4560    32.9770 h1         1 X3S       0.060450
     39 H14         26.8310     1.0900    33.8480 h1         1 X3S       0.060450
     40 H16         24.1480     7.0880    29.0980 hc         1 X3S       0.057367
     41 H17         22.8560     7.7340    30.1040 hc         1 X3S       0.057367
     42 H15         24.5390     8.0140    30.5410 hc         1 X3S       0.057367
     43 H6          23.2560     8.4490    32.5930 h4         1 X3S       0.204000
     44 H4          21.5350    12.7130    34.1910 hn         1 X3S       0.351500
     45 H5          20.0220     9.6090    34.5900 hn         1 X3S       0.328500
     46 H9          23.7600     1.9840    33.6140 hn         1 X3S       0.327500
     47 H12         23.9940     0.2520    35.1260 h1         1 X3S       0.060450
@<TRIPOS>BOND
     1     1     2 ar  
     2     1     6 ar  
     3     1    31 1   
     4     2     5 ar  
     5     2    32 1   
     6     3     4 ar  
     7     3     6 ar  
     8     3    21 1   
     9     4     5 ar  
    10     4    20 1   
    11     5    33 1   
    12     6    30 1   
    13     7    18 1   
    14     7    24 2   
    15     7    34 1   
    16     8     9 2   
    17     8    11 1   
    18     8    23 1   
    19     9    16 1   
    20     9    29 1   
    21    10    11 2   
    22    10    12 1   
    23    10    29 1   
    24    11    35 1   
    25    12    25 1   
    26    12    27 2   
    27    13    14 1   
    28    13    15 1   
    29    13    25 1   
    30    13    36 1   
    31    14    28 1   
    32    14    37 1   
    33    14    47 1   
    34    15    28 1   
    35    15    38 1   
    36    15    39 1   
    37    16    40 1   
    38    16    41 1   
    39    16    42 1   
    40    17    21 1   
    41    17    22 1   
    42    17    26 2   
    43    18    19 2   
    44    18    22 1   
    45    19    23 1   
    46    19    43 1   
    47    21    44 1   
    48    22    45 1   
    49    23    24 1   
    50    25    46 1   
@<TRIPOS>SUBSTRUCTURE
     1 X3S         1 TEMP              0 ****  ****    0 ROOT
