@<TRIPOS>MOLECULE
X3S
   47    50     1     0     0
SMALL
No Charge or Current Charge


@<TRIPOS>ATOM
      1 C2          17.2990    11.7280    35.1660 ca         1 X3S      -0.118000
      2 C1          17.3220    12.2390    36.4750 ca         1 X3S      -0.071000
      3 C4          19.7300    11.9600    35.0160 ca         1 X3S      -0.102000
      4 C5          19.7360    12.4950    36.3200 ca         1 X3S       0.175000
      5 C6          18.5440    12.6280    37.0490 ca         1 X3S      -0.148000
      6 C3          18.4920    11.5920    34.4340 ca         1 X3S       0.130000
      7 C10         20.6330     7.0660    33.9700 cc         1 X3S       0.207900
      8 C11         23.2500     5.6840    32.1400 cc         1 X3S      -0.028200
      9 C12         23.9080     6.1600    31.0190 cd         1 X3S      -0.220300
     10 C13         24.4820     3.7720    31.6740 cd         1 X3S      -0.309600
     11 C14         23.5400     4.3450    32.4980 cc         1 X3S      -0.072000
     12 C15         25.0040     2.3930    31.7500 c          1 X3S       0.643700
     13 C16         24.8330     0.2680    33.0350 cy         1 X3S       0.052700
     14 C17         24.3770    -0.4370    34.3520 cy         1 X3S       0.128100
     15 C18         26.2560    -0.0920    33.5710 cy         1 X3S       0.128100
     16 C19         23.7510     7.4310    30.2100 c3         1 X3S      -0.029800
     17 C7          21.5830    10.7380    33.7600 c          1 X3S       0.675100
     18 C8          21.3150     8.2480    33.6500 cc         1 X3S      -0.048400
     19 C9          22.3960     7.8730    32.9140 cd         1 X3S      -0.164000
     20 F1          20.9020    12.8730    36.8910 f          1 X3S      -0.160000
     21 N1          20.9610    11.8450    34.3080 ns         1 X3S      -0.180000
     22 N2          20.9590     9.5370    34.0430 ns         1 X3S      -0.385100
     23 N3          22.2910     6.4750    32.7910 na         1 X3S       0.244000
     24 N4          21.1980     5.9760    33.4980 nd         1 X3S      -0.502800
     25 N5          24.4690     1.6420    32.7700 ns         1 X3S      -0.484900
     26 O1          22.6120    10.8360    33.1060 o          1 X3S      -0.624100
     27 O2          25.8400     1.9480    30.9780 o          1 X3S      -0.607100
     28 O3          25.6270    -1.2140    34.2880 oq         1 X3S      -0.447000
     29 S1          25.0280     4.9080    30.4260 ss         1 X3S       0.356000
     30 Cl1         18.3910    11.0080    32.7730 cl         1 X3S      -0.161000
     31 H2          16.3530    11.4450    34.7130 ha         1 X3S       0.140000
     32 H1          16.3960    12.3430    37.0370 ha         1 X3S       0.128000
     33 H3          18.5690    13.0330    38.0580 ha         1 X3S       0.142000
     34 H7          19.7310     6.9700    34.5610 h4         1 X3S       0.038100
     35 H8          23.0480     3.8600    33.3360 ha         1 X3S       0.148000
     36 H10         24.5730    -0.3270    32.1520 h1         1 X3S       0.086700
     37 H11         23.4810    -1.0630    34.2730 h1         1 X3S       0.060450
     38 H13         26.9800    -0.4190    32.8160 h1         1 X3S       0.060450
     39 H14         26.6890     0.6430    34.2610 h1         1 X3S       0.060450
     40 H16         24.0370     7.2680    29.1640 hc         1 X3S       0.057367
     41 H17         22.7130     7.7850    30.2020 hc         1 X3S       0.057367
     42 H15         24.3900     8.2330    30.5970 hc         1 X3S       0.057367
     43 H6          23.2160     8.4530    32.5180 h4         1 X3S       0.186000
     44 H4          21.4650    12.7130    34.1820 hn         1 X3S       0.185000
     45 H5          20.1250     9.6430    34.6070 hn         1 X3S       0.328500
     46 H9          23.7810     2.1040    33.3480 hn         1 X3S       0.327500
     47 H12         24.3450     0.2100    35.2380 h1         1 X3S       0.060450
@<TRIPOS>BOND
     1     1     2 ar  
     2     1     6 ar  
     3     1    31 1   
     4     2     5 ar  
     5     2    32 1   
     6     3     4 ar  
     7     3     6 ar  
     8     3    21 1   
     9     4     5 ar  
    10     4    20 1   
    11     5    33 1   
    12     6    30 1   
    13     7    18 1   
    14     7    24 2   
    15     7    34 1   
    16     8     9 2   
    17     8    11 1   
    18     8    23 1   
    19     9    16 1   
    20     9    29 1   
    21    10    11 2   
    22    10    12 1   
    23    10    29 1   
    24    11    35 1   
    25    12    25 1   
    26    12    27 2   
    27    13    14 1   
    28    13    15 1   
    29    13    25 1   
    30    13    36 1   
    31    14    28 1   
    32    14    37 1   
    33    14    47 1   
    34    15    28 1   
    35    15    38 1   
    36    15    39 1   
    37    16    40 1   
    38    16    41 1   
    39    16    42 1   
    40    17    21 1   
    41    17    22 1   
    42    17    26 2   
    43    18    19 2   
    44    18    22 1   
    45    19    23 1   
    46    19    43 1   
    47    21    44 1   
    48    22    45 1   
    49    23    24 1   
    50    25    46 1   
@<TRIPOS>SUBSTRUCTURE
     1 X3S         1 TEMP              0 ****  ****    0 ROOT
