@<TRIPOS>MOLECULE
X3T
   16    16     1     0     0
SMALL
No Charge or Current Charge


@<TRIPOS>ATOM
      1 C02        -18.8600     2.6090    -3.7710 c6         1 X3T       0.470400
      2 C04        -18.8810     3.5560    -2.5940 c2         1 X3T      -0.285200
      3 C05        -19.3500     3.2280    -1.3750 c2         1 X3T      -0.189700
      4 C06        -19.9150     1.8540    -1.0440 c6         1 X3T      -0.031000
      5 C07        -19.8930     0.9010    -2.2300 c2         1 X3T      -0.189700
      6 C08        -19.4220     1.2460    -3.4430 c2         1 X3T      -0.285200
      7 O01        -19.6040     3.1720    -4.8110 oh         1 X3T      -0.637000
      8 O03        -17.5440     2.4570    -4.2120 oh         1 X3T      -0.637000
      9 H1         -18.5080     4.5620    -2.7870 ha         1 X3T       0.197500
     10 H2         -19.3510     3.9580    -0.5630 ha         1 X3T       0.179000
     11 H3         -20.9480     1.9630    -0.6830 hc         1 X3T       0.063700
     12 H4         -19.3420     1.4160    -0.2140 hc         1 X3T       0.063700
     13 H5         -20.2770    -0.1050    -2.0460 ha         1 X3T       0.179000
     14 H6         -19.4060     0.5180    -4.2540 ha         1 X3T       0.197500
     15 H7         -19.8530     2.4110    -5.3710 ho         1 X3T       0.452000
     16 H8         -17.1350     3.3320    -4.0650 ho         1 X3T       0.452000
@<TRIPOS>BOND
     1     1     2 1   
     2     1     6 1   
     3     1     7 1   
     4     1     8 1   
     5     2     3 2   
     6     2     9 1   
     7     3     4 1   
     8     3    10 1   
     9     4     5 1   
    10     4    11 1   
    11     4    12 1   
    12     5     6 2   
    13     5    13 1   
    14     6    14 1   
    15     7    15 1   
    16     8    16 1   
@<TRIPOS>SUBSTRUCTURE
     1 X3T         1 TEMP              0 ****  ****    0 ROOT
