@<TRIPOS>MOLECULE
X3V
   44    47     1     0     0
SMALL
No Charge or Current Charge


@<TRIPOS>ATOM
      1 C8          23.9950     6.3510    31.1850 cc         1 X3V      -0.291000
      2 C5          20.6640    10.7210    32.7780 c          1 X3V       0.670100
      3 C6          23.2610     4.3740    32.2570 cd         1 X3V      -0.080000
      4 C4          23.0940     5.7710    32.0500 cd         1 X3V      -0.008200
      5 C2          20.8960     8.2610    33.2090 cc         1 X3V      -0.045400
      6 N1          21.1840     6.0020    33.5290 nd         1 X3V      -0.505800
      7 C18         25.6380    -0.2920    33.1520 cy         1 X3V       0.121100
      8 C14         17.7860    12.7470    33.9760 ca         1 X3V       0.093000
      9 C12         17.0040    12.3000    36.2390 ca         1 X3V      -0.106000
     10 C16         24.3630     0.2000    32.3950 cy         1 X3V       0.045700
     11 C1          21.9670     7.9360    32.4290 cd         1 X3V      -0.164000
     12 C10         19.1110    11.3510    35.4680 ca         1 X3V      -0.122000
     13 C11         18.1490    11.5230    36.4790 ca         1 X3V      -0.096000
     14 C13         16.8260    12.9160    34.9890 ca         1 X3V      -0.089000
     15 C17         23.6350    -0.6760    33.4630 cy         1 X3V       0.121100
     16 C3          20.4730     7.0670    33.8410 cc         1 X3V       0.211900
     17 C7          24.3200     3.8720    31.5280 cc         1 X3V      -0.313600
     18 C9          18.9270    11.9450    34.2000 ca         1 X3V      -0.042000
     19 N2          22.1000     6.5620    32.6560 na         1 X3V       0.246000
     20 N4          19.8910    11.8010    33.1650 ns         1 X3V      -0.182000
     21 N5          24.0740     1.6110    32.2770 ns         1 X3V      -0.480900
     22 O1          21.5570    10.8370    31.9500 o          1 X3V      -0.625100
     23 O3          24.8640    -1.4830    33.5390 oq         1 X3V      -0.444000
     24 S1          25.1150     5.1300    30.5830 ss         1 X3V       0.375000
     25 H6          24.1090     7.3700    30.8450 h4         1 X3V       0.166000
     26 H5          22.6220     3.7910    32.9130 ha         1 X3V       0.153000
     27 H16         26.5030    -0.5300    32.5230 h1         1 X3V       0.057950
     28 H15         25.9200     0.3130    34.0230 h1         1 X3V       0.057950
     29 H9          16.2620    12.4340    37.0230 ha         1 X3V       0.124000
     30 H12         24.2930    -0.2470    31.3960 h1         1 X3V       0.106700
     31 H1          22.5960     8.5280    31.7800 h4         1 X3V       0.186000
     32 H7          20.0080    10.7760    35.6910 ha         1 X3V       0.133000
     33 H8          18.2960    11.0620    37.4540 ha         1 X3V       0.124000
     34 H10         15.9460    13.5270    34.8040 ha         1 X3V       0.134000
     35 H14         23.4220    -0.1680    34.4120 h1         1 X3V       0.057950
     36 H13         22.7710    -1.2470    33.1040 h1         1 X3V       0.057950
     37 H2          19.6480     6.9540    34.5320 h4         1 X3V       0.039100
     38 H4          20.0680    12.6450    32.6360 hn         1 X3V       0.182000
     39 H11         23.3030     2.0150    32.7920 hn         1 X3V       0.321500
     40 C15         24.7930     2.4790    31.4890 c          1 X3V       0.649700
     41 N3          20.3180     9.5200    33.3700 ns         1 X3V      -0.388100
     42 O2          25.7440     2.1090    30.8160 o          1 X3V      -0.602100
     43 Cl1         17.5340    13.5370    32.4200 cl         1 X3V      -0.184000
     44 H3          19.5200     9.5960    33.9900 hn         1 X3V       0.331500
@<TRIPOS>BOND
     1     1     4 2   
     2     1    24 1   
     3     1    25 1   
     4     2    20 1   
     5     2    22 2   
     6     2    41 1   
     7     3     4 1   
     8     3    17 2   
     9     3    26 1   
    10     4    19 1   
    11     5    11 2   
    12     5    16 1   
    13     5    41 1   
    14     6    16 2   
    15     6    19 1   
    16     7    10 1   
    17     7    23 1   
    18     7    27 1   
    19     7    28 1   
    20     8    14 ar  
    21     8    18 ar  
    22     8    43 1   
    23     9    13 ar  
    24     9    14 ar  
    25     9    29 1   
    26    10    15 1   
    27    10    21 1   
    28    10    30 1   
    29    11    19 1   
    30    11    31 1   
    31    12    13 ar  
    32    12    18 ar  
    33    12    32 1   
    34    13    33 1   
    35    14    34 1   
    36    15    23 1   
    37    15    35 1   
    38    15    36 1   
    39    16    37 1   
    40    17    24 1   
    41    17    40 1   
    42    18    20 1   
    43    20    38 1   
    44    21    39 1   
    45    21    40 1   
    46    40    42 2   
    47    41    44 1   
@<TRIPOS>SUBSTRUCTURE
     1 X3V         1 TEMP              0 ****  ****    0 ROOT
