@<TRIPOS>MOLECULE
X3V
   44    47     1     0     0
SMALL
bcc


@<TRIPOS>ATOM
      1 C8          23.6750     6.1650    30.7100 cc         1 X3V      -0.164100
      2 C5          20.7230    10.7380    32.8980 c          1 X3V       0.804100
      3 C6          23.1840     4.4570    32.2030 cd         1 X3V      -0.098000
      4 C4          22.9360     5.7930    31.7980 cd         1 X3V      -0.008200
      5 C2          20.8740     8.3300    33.1770 cc         1 X3V      -0.110700
      6 N1          21.1300     6.0960    33.2860 nd         1 X3V      -0.505800
      7 C18         25.3000    -0.0920    33.9130 cy         1 X3V       0.097900
      8 C14         17.8050    12.3960    34.0150 ca         1 X3V       0.001400
      9 C12         17.1400    12.1770    36.3060 ca         1 X3V      -0.124000
     10 C16         24.7130     0.3190    32.5540 cy         1 X3V       0.045700
     11 C1          21.9200     7.9750    32.3590 cd         1 X3V      -0.131300
     12 C10         19.3830    11.6300    35.6470 ca         1 X3V      -0.140000
     13 C11         18.4120    11.7260    36.6300 ca         1 X3V      -0.114000
     14 C13         16.8350    12.5200    34.9980 ca         1 X3V      -0.107000
     15 C17         23.6620    -0.7570    32.8580 cy         1 X3V       0.097900
     16 C3          20.4220     7.1120    33.7300 cc         1 X3V       0.277200
     17 C7          24.1110     3.8500    31.4070 cc         1 X3V      -0.168700
     18 C9          19.0920    11.9520    34.3230 ca         1 X3V       0.050600
     19 N2          22.0290     6.6230    32.4620 na         1 X3V       0.195300
     20 N4          20.0790    11.8670    33.3290 ns         1 X3V      -0.508100
     21 N5          24.2560     1.6650    32.3930 ns         1 X3V      -0.547900
     22 O1          21.5980    10.7930    32.0490 o          1 X3V      -0.625100
     23 O3          24.3970    -1.1990    34.0040 oq         1 X3V      -0.397600
     24 S1          24.6850     4.9010    30.1760 ss         1 X3V       0.085200
     25 H6          23.6700     7.1120    30.1920 h4         1 X3V       0.184000
     26 H5          22.6880     3.9940    33.0440 ha         1 X3V       0.171000
     27 H16         26.3490    -0.3990    33.9170 h1         1 X3V       0.057950
     28 H15         25.1410     0.6490    34.7030 h1         1 X3V       0.057950
     29 H9          16.3800    12.2660    37.0710 ha         1 X3V       0.142000
     30 H12         25.3580     0.0660    31.7150 h1         1 X3V       0.106700
     31 H1          22.5830     8.5580    31.7460 h4         1 X3V       0.204000
     32 H7          20.3860    11.3110    35.9000 ha         1 X3V       0.151000
     33 H8          18.6560    11.4670    37.6510 ha         1 X3V       0.142000
     34 H10         15.8460    12.8720    34.7390 ha         1 X3V       0.152000
     35 H14         22.6780    -0.3500    33.1190 h1         1 X3V       0.057950
     36 H13         23.5330    -1.5400    32.1080 h1         1 X3V       0.057950
     37 H2          19.6120     6.9590    34.4270 h4         1 X3V       0.039100
     38 H4          20.2620    12.6890    32.7730 hn         1 X3V       0.348500
     39 H11         23.5840     2.0030    33.0650 hn         1 X3V       0.321500
     40 C15         24.6910     2.4910    31.4260 c          1 X3V       0.716700
     41 N3          20.3230     9.5690    33.4690 ns         1 X3V      -0.455100
     42 O2          25.5200     2.1820    30.5810 o          1 X3V      -0.602100
     43 CL1         17.4120    12.7960    32.3810 cl         1 X3V      -0.092400
     44 H3          19.5320     9.5620    34.0940 hn         1 X3V       0.331500
@<TRIPOS>BOND
     1     1     4 2   
     2     1    24 1   
     3     1    25 1   
     4     2    20 1   
     5     2    22 2   
     6     2    41 1   
     7     3     4 1   
     8     3    17 2   
     9     3    26 1   
    10     4    19 1   
    11     5    11 2   
    12     5    16 1   
    13     5    41 1   
    14     6    16 2   
    15     6    19 1   
    16     7    10 1   
    17     7    23 1   
    18     7    27 1   
    19     7    28 1   
    20     8    14 ar  
    21     8    18 ar  
    22     8    43 1   
    23     9    13 ar  
    24     9    14 ar  
    25     9    29 1   
    26    10    15 1   
    27    10    21 1   
    28    10    30 1   
    29    11    19 1   
    30    11    31 1   
    31    12    13 ar  
    32    12    18 ar  
    33    12    32 1   
    34    13    33 1   
    35    14    34 1   
    36    15    23 1   
    37    15    35 1   
    38    15    36 1   
    39    16    37 1   
    40    17    24 1   
    41    17    40 1   
    42    18    20 1   
    43    20    38 1   
    44    21    39 1   
    45    21    40 1   
    46    40    42 2   
    47    41    44 1   
@<TRIPOS>SUBSTRUCTURE
     1 X3V         1 TEMP              0 ****  ****    0 ROOT
