@<TRIPOS>MOLECULE
X3W
   58    62     1     0     0
SMALL
abcg2


@<TRIPOS>ATOM
      1 C4         -17.8000     9.9340    26.5900 c5         1 X3W       0.098700
      2 C14        -16.2230    13.4180    28.2440 cc         1 X3W       0.504000
      3 C6         -17.9600     9.0490    25.3500 c5         1 X3W       0.139600
      4 C11        -16.1090    11.7560    26.8980 cd         1 X3W       0.395900
      5 C8         -15.9210    10.0240    25.2110 c          1 X3W       0.703100
      6 C12        -14.8860    12.3640    26.8390 cc         1 X3W      -0.243000
      7 C2         -17.6700     9.1820    27.9220 c3         1 X3W      -0.077700
      8 O7         -16.6610     9.0070    24.7530 os         1 X3W      -0.410100
      9 O9         -14.8350    10.2950    24.7620 o          1 X3W      -0.536000
     10 N10        -16.5870    10.6450    26.2150 n          1 X3W      -0.404300
     11 N13        -14.9830    13.4280    27.7030 na         1 X3W      -0.153500
     12 N15        -16.9220    12.4060    27.7570 nd         1 X3W      -0.726000
     13 C16        -16.7890    14.3360    29.2320 ca         1 X3W      -0.235500
     14 C17        -18.1240    14.1150    29.6070 ca         1 X3W      -0.006000
     15 C18        -18.7680    14.8410    30.5780 ca         1 X3W      -0.215000
     16 C19        -18.0880    15.8680    31.2610 ca         1 X3W       0.368000
     17 C20        -16.7680    16.1240    30.8820 ca         1 X3W      -0.230000
     18 C21        -16.1320    15.3810    29.8940 ca         1 X3W       0.183100
     19 O22        -14.8470    15.7390    29.6700 os         1 X3W      -0.354100
     20 C23        -14.3530    15.7130    28.3470 c3         1 X3W       0.150600
     21 C24        -13.8860    14.3410    27.9370 c3         1 X3W       0.038600
     22 N25        -18.6960    16.6080    32.2340 nh         1 X3W      -0.841400
     23 C26        -17.9850    17.6150    33.0080 c5         1 X3W       0.219800
     24 C27        -19.0430    18.1340    33.9710 c5         1 X3W      -0.097400
     25 C28        -19.9150    16.9080    34.2070 c5         1 X3W      -0.082400
     26 C29        -19.9690    16.2470    32.8230 c5         1 X3W       0.147500
     27 C31        -21.1930    16.7250    32.0400 c          1 X3W       0.591100
     28 O32        -22.3070    16.3410    32.3670 o          1 X3W      -0.611100
     29 N33        -20.9620    17.5710    31.0310 nt         1 X3W      -0.594000
     30 H5         -18.6350    10.6330    26.6650 h1         1 X3W       0.087700
     31 H1         -18.6620     9.4800    24.6350 h1         1 X3W       0.068700
     32 H2         -18.2730     8.0310    25.5760 h1         1 X3W       0.068700
     33 H3         -13.9850    12.1640    26.2890 h4         1 X3W       0.182000
     34 H4         -16.4730     7.6870    28.9090 hc         1 X3W       0.037033
     35 H6         -16.7330     7.3440    27.2080 hc         1 X3W       0.037033
     36 H7         -15.5770     8.5890    27.7010 hc         1 X3W       0.037033
     37 H8         -18.9460     8.0870    29.2810 hc         1 X3W       0.037033
     38 H9         -19.8050     9.2970    28.3350 hc         1 X3W       0.037033
     39 H10        -19.3080     7.7760    27.5910 hc         1 X3W       0.037033
     40 H11        -17.4390     9.9360    28.6800 hc         1 X3W       0.076700
     41 H12        -18.6680    13.3230    29.1100 ha         1 X3W       0.139000
     42 H13        -19.7990    14.6050    30.8010 ha         1 X3W       0.124000
     43 H14        -16.1990    16.9160    31.3490 ha         1 X3W       0.127000
     44 H15        -13.4950    16.3840    28.3330 h1         1 X3W       0.068700
     45 H16        -15.0940    16.1020    27.6400 h1         1 X3W       0.068700
     46 H17        -13.2080    13.9320    28.6890 h1         1 X3W       0.072200
     47 H18        -13.3260    14.4300    27.0050 h1         1 X3W       0.072200
     48 H19        -17.1420    17.1700    33.5490 h1         1 X3W       0.048200
     49 H20        -17.5860    18.4030    32.3660 h1         1 X3W       0.048200
     50 H21        -18.6040    18.5280    34.8860 hc         1 X3W       0.058700
     51 H22        -19.6220    18.9340    33.5070 hc         1 X3W       0.058700
     52 H23        -20.9020    17.1380    34.6040 hc         1 X3W       0.067700
     53 H24        -19.4290    16.2260    34.9070 hc         1 X3W       0.067700
     54 H30        -20.0700    15.1620    32.9260 h1         1 X3W       0.088700
     55 H25        -21.7270    17.9430    30.4930 hn         1 X3W       0.320500
     56 H26        -20.0310    17.8720    30.7960 hn         1 X3W       0.320500
     57 C3         -16.5500     8.1480    27.9240 c3         1 X3W      -0.090100
     58 C1         -19.0070     8.5530    28.2980 c3         1 X3W      -0.090100
@<TRIPOS>BOND
     1     1     3 1   
     2     1     7 1   
     3     1    10 1   
     4     1    30 1   
     5     2    11 1   
     6     2    12 2   
     7     2    13 1   
     8     3     8 1   
     9     3    31 1   
    10     3    32 1   
    11     4     6 2   
    12     4    10 1   
    13     4    12 1   
    14     5     8 1   
    15     5     9 2   
    16     5    10 1   
    17     6    11 1   
    18     6    33 1   
    19     7    40 1   
    20     7    57 1   
    21     7    58 1   
    22    11    21 1   
    23    13    14 ar  
    24    13    18 ar  
    25    14    15 ar  
    26    14    41 1   
    27    15    16 ar  
    28    15    42 1   
    29    16    17 ar  
    30    16    22 1   
    31    17    18 ar  
    32    17    43 1   
    33    18    19 1   
    34    19    20 1   
    35    20    21 1   
    36    20    44 1   
    37    20    45 1   
    38    21    46 1   
    39    21    47 1   
    40    22    23 1   
    41    22    26 1   
    42    23    24 1   
    43    23    48 1   
    44    23    49 1   
    45    24    25 1   
    46    24    50 1   
    47    24    51 1   
    48    25    26 1   
    49    25    52 1   
    50    25    53 1   
    51    26    27 1   
    52    26    54 1   
    53    27    28 2   
    54    27    29 1   
    55    29    55 1   
    56    29    56 1   
    57    34    57 1   
    58    35    57 1   
    59    36    57 1   
    60    37    58 1   
    61    38    58 1   
    62    39    58 1   
@<TRIPOS>SUBSTRUCTURE
     1 X3W         1 TEMP              0 ****  ****    0 ROOT
