@<TRIPOS>MOLECULE
X3W
   58    62     1     0     0
SMALL
No Charge or Current Charge


@<TRIPOS>ATOM
      1 C4         -17.7260     9.9230    26.3770 c5         1 X3W       0.098700
      2 C14        -16.2050    13.3620    28.3260 cc         1 X3W       0.504000
      3 C6         -17.7210     9.0620    25.0780 c5         1 X3W       0.139600
      4 C11        -16.0480    11.6760    26.9650 cd         1 X3W       0.395900
      5 C8         -15.6060     9.9160    25.2840 c          1 X3W       0.703100
      6 C12        -14.8230    12.2900    26.9470 cc         1 X3W      -0.243000
      7 C2         -17.8980     9.1200    27.7080 c3         1 X3W      -0.077700
      8 O7         -16.3280     8.9100    24.7190 os         1 X3W      -0.410100
      9 O9         -14.4390    10.1530    25.0150 o          1 X3W      -0.536000
     10 N10        -16.4020    10.5530    26.2330 n          1 X3W      -0.404300
     11 N13        -14.9220    13.3580    27.8120 na         1 X3W      -0.153500
     12 N15        -16.8890    12.3490    27.8170 nd         1 X3W      -0.726000
     13 C16        -16.7700    14.2850    29.3350 ca         1 X3W      -0.235500
     14 C17        -18.0250    13.9390    29.8930 ca         1 X3W      -0.006000
     15 C18        -18.6310    14.7220    30.8850 ca         1 X3W      -0.215000
     16 C19        -18.0120    15.8830    31.3640 ca         1 X3W       0.368000
     17 C20        -16.7780    16.2460    30.8080 ca         1 X3W      -0.230000
     18 C21        -16.1620    15.4860    29.8020 ca         1 X3W       0.183100
     19 O22        -14.9680    16.0130    29.3560 os         1 X3W      -0.354100
     20 C23        -14.3950    15.7520    28.0710 c3         1 X3W       0.150600
     21 C24        -13.8610    14.3230    28.0710 c3         1 X3W       0.038600
     22 N25        -18.6220    16.6760    32.3730 nh         1 X3W      -0.841400
     23 C26        -18.0180    17.9240    32.9210 c5         1 X3W       0.219800
     24 C27        -19.1630    18.4790    33.8050 c5         1 X3W      -0.097400
     25 C28        -19.7490    17.1800    34.4150 c5         1 X3W      -0.082400
     26 C29        -19.8290    16.2350    33.1810 c5         1 X3W       0.147500
     27 C31        -21.1790    16.4720    32.3830 c          1 X3W       0.591100
     28 O32        -22.2600    15.9680    32.6520 o          1 X3W      -0.611100
     29 N33        -21.0820    17.2810    31.3020 nt         1 X3W      -0.594000
     30 H5         -18.5240    10.6780    26.3250 h1         1 X3W       0.087700
     31 H1         -18.2300     9.5950    24.2640 h1         1 X3W       0.068700
     32 H2         -18.1930     8.0780    25.1930 h1         1 X3W       0.068700
     33 H3         -13.9150    12.0630    26.4070 h4         1 X3W       0.182000
     34 H4         -16.9530     7.5610    28.9230 hc         1 X3W       0.037033
     35 H6         -16.8340     7.2700    27.1770 hc         1 X3W       0.037033
     36 H7         -15.8060     8.4950    27.9530 hc         1 X3W       0.037033
     37 H8         -19.4430     8.0620    28.8400 hc         1 X3W       0.037033
     38 H9         -20.0820     9.2760    27.7180 hc         1 X3W       0.037033
     39 H10        -19.4810     7.7220    27.0990 hc         1 X3W       0.037033
     40 H11        -17.8040     9.8390    28.5310 hc         1 X3W       0.076700
     41 H12        -18.5480    13.0390    29.5740 ha         1 X3W       0.139000
     42 H13        -19.5910    14.4040    31.2770 ha         1 X3W       0.124000
     43 H14        -16.2730    17.1430    31.1460 ha         1 X3W       0.127000
     44 H15        -13.5540    16.4360    27.9010 h1         1 X3W       0.068700
     45 H16        -15.1220    15.9040    27.2620 h1         1 X3W       0.068700
     46 H17        -13.3840    14.0960    29.0330 h1         1 X3W       0.072200
     47 H18        -13.1020    14.2290    27.2840 h1         1 X3W       0.072200
     48 H19        -17.1260    17.6980    33.5220 h1         1 X3W       0.048200
     49 H20        -17.7420    18.6420    32.1370 h1         1 X3W       0.048200
     50 H21        -18.7950    19.1760    34.5670 hc         1 X3W       0.058700
     51 H22        -19.9050    19.0180    33.2060 hc         1 X3W       0.058700
     52 H23        -20.7220    17.3350    34.8970 hc         1 X3W       0.067700
     53 H24        -19.0760    16.7670    35.1750 hc         1 X3W       0.067700
     54 H30        -19.7850    15.1800    33.4830 h1         1 X3W       0.088700
     55 H25        -21.8900    17.4650    30.7280 hn         1 X3W       0.320500
     56 H26        -20.1690    17.6450    31.0690 hn         1 X3W       0.320500
     57 C3         -16.8060     8.0460    27.9510 c3         1 X3W      -0.090100
     58 C1         -19.3110     8.5070    27.8460 c3         1 X3W      -0.090100
@<TRIPOS>BOND
     1     1     3 1   
     2     1     7 1   
     3     1    10 1   
     4     1    30 1   
     5     2    11 1   
     6     2    12 2   
     7     2    13 1   
     8     3     8 1   
     9     3    31 1   
    10     3    32 1   
    11     4     6 2   
    12     4    10 1   
    13     4    12 1   
    14     5     8 1   
    15     5     9 2   
    16     5    10 1   
    17     6    11 1   
    18     6    33 1   
    19     7    40 1   
    20     7    57 1   
    21     7    58 1   
    22    11    21 1   
    23    13    14 ar  
    24    13    18 ar  
    25    14    15 ar  
    26    14    41 1   
    27    15    16 ar  
    28    15    42 1   
    29    16    17 ar  
    30    16    22 1   
    31    17    18 ar  
    32    17    43 1   
    33    18    19 1   
    34    19    20 1   
    35    20    21 1   
    36    20    44 1   
    37    20    45 1   
    38    21    46 1   
    39    21    47 1   
    40    22    23 1   
    41    22    26 1   
    42    23    24 1   
    43    23    48 1   
    44    23    49 1   
    45    24    25 1   
    46    24    50 1   
    47    24    51 1   
    48    25    26 1   
    49    25    52 1   
    50    25    53 1   
    51    26    27 1   
    52    26    54 1   
    53    27    28 2   
    54    27    29 1   
    55    29    55 1   
    56    29    56 1   
    57    34    57 1   
    58    35    57 1   
    59    36    57 1   
    60    37    58 1   
    61    38    58 1   
    62    39    58 1   
@<TRIPOS>SUBSTRUCTURE
     1 X3W         1 TEMP              0 ****  ****    0 ROOT
