@<TRIPOS>MOLECULE
X3X
   29    28     1     0     0
SMALL
No Charge or Current Charge


@<TRIPOS>ATOM
      1 O3          -5.4880     0.1060    -1.2180 oh         1 X3X      -0.649000
      2 C3          -4.6200     0.5660    -0.1670 c3         1 X3X       0.118100
      3 C2          -3.2430    -0.1580    -0.2020 c3         1 X3X       0.158300
      4 O2          -3.4030    -1.5700     0.0710 oh         1 X3X      -0.629500
      5 C1          -2.2360     0.4980     0.8030 c3         1 X3X       0.195600
      6 O1          -1.0340    -0.2820     0.9920 os         1 X3X      -0.565400
      7 PAO         -0.2170    -0.9490    -0.2270 p5         1 X3X       1.392800
      8 OAF         -0.8890    -2.2160    -0.6410 o          1 X3X      -0.832500
      9 OAA         -0.0460     0.0010    -1.3640 o          1 X3X      -0.832500
     10 O6           1.1620    -1.2390     0.5580 os         1 X3X      -0.565400
     11 C6           2.0960    -0.1790     0.8260 c3         1 X3X       0.195600
     12 C5           3.4320    -0.4410     0.0680 c3         1 X3X       0.158300
     13 O5           3.2570    -0.4230    -1.3630 oh         1 X3X      -0.629500
     14 C4           4.5150     0.6050     0.4410 c3         1 X3X       0.118100
     15 O4           5.7220     0.3610    -0.3020 oh         1 X3X      -0.649000
     16 H1          -6.3550     0.5500    -1.0910 ho         1 X3X       0.424000
     17 H2          -4.4540     1.6460    -0.2750 h1         1 X3X       0.014200
     18 H3          -5.0900     0.4030     0.8120 h1         1 X3X       0.014200
     19 H4          -2.8380    -0.0170    -1.2140 h1         1 X3X       0.091200
     20 H5          -2.5210    -1.9770    -0.1480 ho         1 X3X       0.427000
     21 H6          -1.9780     1.5020     0.4420 h1         1 X3X       0.018700
     22 H7          -2.7390     0.6240     1.7710 h1         1 X3X       0.018700
     23 H9           1.6930     0.8010     0.5340 h1         1 X3X       0.018700
     24 H10          2.3030    -0.1370     1.9030 h1         1 X3X       0.018700
     25 H11          3.8020    -1.4250     0.3880 h1         1 X3X       0.091200
     26 H12          4.1540    -0.2320    -1.7180 ho         1 X3X       0.427000
     27 H13          4.1370     1.6150     0.2300 h1         1 X3X       0.014200
     28 H14          4.7160     0.5430     1.5180 h1         1 X3X       0.014200
     29 H15          6.3880     1.0160     0.0060 ho         1 X3X       0.424000
@<TRIPOS>BOND
     1     1     2 1   
     2     1    16 1   
     3     2     3 1   
     4     2    17 1   
     5     2    18 1   
     6     3     4 1   
     7     3     5 1   
     8     3    19 1   
     9     4    20 1   
    10     5     6 1   
    11     5    21 1   
    12     5    22 1   
    13     6     7 1   
    14     7     8 1   
    15     7     9 1   
    16     7    10 1   
    17    10    11 1   
    18    11    12 1   
    19    11    23 1   
    20    11    24 1   
    21    12    13 1   
    22    12    14 1   
    23    12    25 1   
    24    13    26 1   
    25    14    15 1   
    26    14    27 1   
    27    14    28 1   
    28    15    29 1   
@<TRIPOS>SUBSTRUCTURE
     1 X3X         1 TEMP              0 ****  ****    0 ROOT
