@<TRIPOS>MOLECULE
X3X
   29    28     1     0     0
SMALL
abcg2


@<TRIPOS>ATOM
      1 O3          -5.6970    -1.1540    -0.6930 oh         1 X3X      -0.649000
      2 C3          -4.8670    -0.1060    -0.2530 c3         1 X3X       0.118100
      3 C2          -3.4400    -0.6160    -0.1390 c3         1 X3X       0.158300
      4 O2          -3.3240    -1.6840     0.7710 oh         1 X3X      -0.629500
      5 C1          -2.5090     0.5370     0.2030 c3         1 X3X       0.195600
      6 O1          -1.1790     0.0630     0.2400 os         1 X3X      -0.565400
      7 PAO          0.0160     1.1770     0.0900 p5         1 X3X       1.392800
      8 OAF          0.0780     1.6770    -1.3220 o          1 X3X      -0.832500
      9 OAA         -0.0420     2.1630     1.2170 o          1 X3X      -0.832500
     10 O6           1.1970     0.0710     0.3560 os         1 X3X      -0.565400
     11 C6           2.5300     0.5370     0.3670 c3         1 X3X       0.195600
     12 C5           3.4680    -0.6350     0.1250 c3         1 X3X       0.158300
     13 O5           3.2280    -1.2650    -1.1100 oh         1 X3X      -0.629500
     14 C4           4.9100    -0.1750     0.2730 c3         1 X3X       0.118100
     15 O4           5.7610    -1.2880     0.1400 oh         1 X3X      -0.649000
     16 H1          -6.5990    -0.8260    -0.7230 ho         1 X3X       0.424000
     17 H2          -4.8830     0.7430    -0.9490 h1         1 X3X       0.014200
     18 H3          -5.1890     0.2820     0.7250 h1         1 X3X       0.014200
     19 H4          -3.1380    -1.0200    -1.1120 h1         1 X3X       0.091200
     20 H5          -3.6110    -1.3790     1.6390 ho         1 X3X       0.427000
     21 H6          -2.6350     1.3240    -0.5500 h1         1 X3X       0.018700
     22 H7          -2.7910     0.9690     1.1730 h1         1 X3X       0.018700
     23 H9           2.6950     1.2980    -0.4070 h1         1 X3X       0.018700
     24 H10          2.7710     0.9980     1.3310 h1         1 X3X       0.018700
     25 H11          3.2720    -1.3960     0.8880 h1         1 X3X       0.091200
     26 H12          3.3830    -0.6270    -1.8160 ho         1 X3X       0.427000
     27 H13          5.1260     0.5930    -0.4850 h1         1 X3X       0.014200
     28 H14          5.0250     0.3080     1.2520 h1         1 X3X       0.014200
     29 H15          6.6680    -0.9760     0.2000 ho         1 X3X       0.424000
@<TRIPOS>BOND
     1     1     2 1   
     2     1    16 1   
     3     2     3 1   
     4     2    17 1   
     5     2    18 1   
     6     3     4 1   
     7     3     5 1   
     8     3    19 1   
     9     4    20 1   
    10     5     6 1   
    11     5    21 1   
    12     5    22 1   
    13     6     7 1   
    14     7     8 1   
    15     7     9 1   
    16     7    10 1   
    17    10    11 1   
    18    11    12 1   
    19    11    23 1   
    20    11    24 1   
    21    12    13 1   
    22    12    14 1   
    23    12    25 1   
    24    13    26 1   
    25    14    15 1   
    26    14    27 1   
    27    14    28 1   
    28    15    29 1   
@<TRIPOS>SUBSTRUCTURE
     1 X3X         1 TEMP              0 ****  ****    0 ROOT
