@<TRIPOS>MOLECULE
X3Y
   44    47     1     0     0
SMALL
No Charge or Current Charge


@<TRIPOS>ATOM
      1 C4          22.8450     5.8250    32.3170 cc         1 X3Y      -0.005200
      2 C5          20.5160    10.7970    33.1040 c          1 X3Y       0.677100
      3 C6          23.0000     4.4290    32.5100 cc         1 X3Y      -0.080000
      4 N1          20.9530     6.0870    33.8160 nc         1 X3Y      -0.507800
      5 C2          20.7150     8.3330    33.4970 cd         1 X3Y      -0.044400
      6 C1          21.7740     8.0000    32.7010 cc         1 X3Y      -0.164000
      7 C10         18.9220    11.5610    35.8120 ca         1 X3Y       0.176000
      8 C11         17.9100    11.7170    36.7730 ca         1 X3Y      -0.148000
      9 C12         16.6950    12.3310    36.4250 ca         1 X3Y      -0.073000
     10 C13         16.5020    12.7980    35.1150 ca         1 X3Y      -0.115000
     11 C14         17.5140    12.6440    34.1520 ca         1 X3Y       0.125000
     12 C15         24.4870     2.5050    31.7280 c          1 X3Y       0.649700
     13 C16         24.0120     0.2400    32.6450 cy         1 X3Y       0.045700
     14 C17         23.2750    -0.6150    33.7240 cy         1 X3Y       0.120600
     15 C18         25.2830    -0.2780    33.3900 cy         1 X3Y       0.120600
     16 C3          20.2540     7.1580    34.1460 cd         1 X3Y       0.213900
     17 C7          24.0430     3.9120    31.7690 cd         1 X3Y      -0.313600
     18 C8          23.7400     6.4030    31.4460 cd         1 X3Y      -0.292000
     19 C9          18.7280    12.0040    34.4820 ca         1 X3Y      -0.098000
     20 N2          21.8680     6.6290    32.9370 na         1 X3Y       0.247000
     21 N4          19.7400    11.8770    33.4860 ns         1 X3Y      -0.180000
     22 N5          23.7540     1.6570    32.5260 ns         1 X3Y      -0.480900
     23 O1          21.4250    10.9170    32.2940 o          1 X3Y      -0.622100
     24 O2          25.4240     2.1160    31.0470 o          1 X3Y      -0.601100
     25 O3          24.4850    -1.4500    33.7900 oq         1 X3Y      -0.443000
     26 S1          24.8510     5.1710    30.8140 ss         1 X3Y       0.373000
     27 Cl1         17.2330    13.2460    32.5190 cl         1 X3Y      -0.169000
     28 H1          22.3520     3.8650    33.1740 ha         1 X3Y       0.155000
     29 H3          22.4070     8.5810    32.0480 h4         1 X3Y       0.186000
     30 H4          18.0740    11.3700    37.7900 ha         1 X3Y       0.143000
     31 H5          15.9110    12.4530    37.1710 ha         1 X3Y       0.128000
     32 H6          15.5670    13.2830    34.8440 ha         1 X3Y       0.139000
     33 H7          23.9200    -0.2080    31.6480 h1         1 X3Y       0.105700
     34 H8          23.0840    -0.0990    34.6740 h1         1 X3Y       0.057700
     35 H9          22.3940    -1.1670    33.3770 h1         1 X3Y       0.057700
     36 H10         26.1350    -0.5390    32.7540 h1         1 X3Y       0.057700
     37 H11         25.5880     0.3230    34.2560 h1         1 X3Y       0.057700
     38 H12         19.4330     7.0610    34.8460 h4         1 X3Y       0.039100
     39 H13         23.8540     7.4260    31.1170 h4         1 X3Y       0.165000
     40 H14         19.9400    12.7280    32.9750 hn         1 X3Y       0.186000
     41 H15         22.9970     2.0800    33.0460 hn         1 X3Y       0.321500
     42 N3          20.1510     9.5920    33.6750 ns         1 X3Y      -0.384100
     43 F1          20.0970    11.0110    36.1900 f          1 X3Y      -0.156000
     44 H2          19.3640     9.6790    34.3050 hn         1 X3Y       0.328500
@<TRIPOS>BOND
     1     1     3 1   
     2     1    18 2   
     3     1    20 1   
     4     2    21 1   
     5     2    23 2   
     6     2    42 1   
     7     3    17 2   
     8     3    28 1   
     9     4    16 2   
    10     4    20 1   
    11     5     6 2   
    12     5    16 1   
    13     5    42 1   
    14     6    20 1   
    15     6    29 1   
    16     7     8 ar  
    17     7    19 ar  
    18     7    43 1   
    19     8     9 ar  
    20     8    30 1   
    21     9    10 ar  
    22     9    31 1   
    23    10    11 ar  
    24    10    32 1   
    25    11    19 ar  
    26    11    27 1   
    27    12    17 1   
    28    12    22 1   
    29    12    24 2   
    30    13    14 1   
    31    13    15 1   
    32    13    22 1   
    33    13    33 1   
    34    14    25 1   
    35    14    34 1   
    36    14    35 1   
    37    15    25 1   
    38    15    36 1   
    39    15    37 1   
    40    16    38 1   
    41    17    26 1   
    42    18    26 1   
    43    18    39 1   
    44    19    21 1   
    45    21    40 1   
    46    22    41 1   
    47    42    44 1   
@<TRIPOS>SUBSTRUCTURE
     1 X3Y         1 TEMP              0 ****  ****    0 ROOT
