@<TRIPOS>MOLECULE
X3Y
   44    47     1     0     0
SMALL
bcc


@<TRIPOS>ATOM
      1 C4          22.8590     5.9140    32.2180 cc         1 X3Y      -0.005200
      2 C5          20.3640    10.7800    33.0190 c          1 X3Y       0.811100
      3 C6          22.9940     4.5380    32.5330 cc         1 X3Y      -0.098000
      4 N1          21.0730     6.2160    33.7290 nc         1 X3Y      -0.507800
      5 C2          20.6590     8.4100    33.4540 cd         1 X3Y      -0.109700
      6 C1          21.6950     8.0590    32.6220 cc         1 X3Y      -0.131300
      7 C10         19.2080    11.9600    35.7800 ca         1 X3Y       0.140900
      8 C11         18.3590    12.0800    36.8600 ca         1 X3Y      -0.166000
      9 C12         17.0040    12.2480    36.6170 ca         1 X3Y      -0.091000
     10 C13         16.5090    12.2860    35.3220 ca         1 X3Y      -0.133000
     11 C14         17.3880    12.1470    34.2590 ca         1 X3Y       0.033400
     12 C15         24.4860     2.5580    31.7710 c          1 X3Y       0.716700
     13 C16         24.3020     0.3230    32.7510 cy         1 X3Y       0.045700
     14 C17         23.1600    -0.6860    32.9370 cy         1 X3Y       0.097400
     15 C18         24.7960    -0.2290    34.0960 cy         1 X3Y       0.097400
     16 C3          20.3120     7.2140    34.1190 cd         1 X3Y       0.279200
     17 C7          23.9890     3.9480    31.8110 cd         1 X3Y      -0.168700
     18 C8          23.7500     6.3310    31.2690 cd         1 X3Y      -0.165100
     19 C9          18.7590    11.9850    34.4620 ca         1 X3Y      -0.005400
     20 N2          21.9040     6.7310    32.8300 na         1 X3Y       0.196300
     21 N4          19.6630    11.8930    33.3970 ns         1 X3Y      -0.506100
     22 N5          23.9560     1.7070    32.6680 ns         1 X3Y      -0.547900
     23 O1          21.2200    10.8320    32.1520 o          1 X3Y      -0.622100
     24 O2          25.3360     2.2470    30.9480 o          1 X3Y      -0.601100
     25 O3          23.8260    -1.2800    34.0560 oq         1 X3Y      -0.396600
     26 S1          24.7560     5.0570    30.7490 ss         1 X3Y       0.083200
     27 CL1         16.7900    12.1730    32.6440 cl         1 X3Y      -0.077400
     28 H1          22.3690     4.0340    33.2560 ha         1 X3Y       0.173000
     29 H3          22.2800     8.6320    31.9270 h4         1 X3Y       0.204000
     30 H4          18.7520    12.0540    37.8670 ha         1 X3Y       0.161000
     31 H5          16.3220    12.3520    37.4500 ha         1 X3Y       0.146000
     32 H6          15.4520    12.4160    35.1410 ha         1 X3Y       0.157000
     33 H7          24.9600     0.0750    31.9230 h1         1 X3Y       0.105700
     34 H8          22.2070    -0.2210    33.2130 h1         1 X3Y       0.057700
     35 H9          22.9880    -1.3900    32.1200 h1         1 X3Y       0.057700
     36 H10         25.8240    -0.6000    34.1270 h1         1 X3Y       0.057700
     37 H11         24.6390     0.4570    34.9350 h1         1 X3Y       0.057700
     38 H12         19.5400     7.0660    34.8580 h4         1 X3Y       0.039100
     39 H13         23.8670     7.3180    30.8490 h4         1 X3Y       0.183000
     40 H14         19.8150    12.7140    32.8310 hn         1 X3Y       0.352500
     41 H15         23.2890     2.0540    33.3390 hn         1 X3Y       0.321500
     42 N3          20.0360     9.6300    33.6690 ns         1 X3Y      -0.451100
     43 F1          20.5170    11.8080    35.9880 f          1 X3Y      -0.120900
     44 H2          19.2410     9.6130    34.2890 hn         1 X3Y       0.328500
@<TRIPOS>BOND
     1     1     3 1   
     2     1    18 2   
     3     1    20 1   
     4     2    21 1   
     5     2    23 2   
     6     2    42 1   
     7     3    17 2   
     8     3    28 1   
     9     4    16 2   
    10     4    20 1   
    11     5     6 2   
    12     5    16 1   
    13     5    42 1   
    14     6    20 1   
    15     6    29 1   
    16     7     8 ar  
    17     7    19 ar  
    18     7    43 1   
    19     8     9 ar  
    20     8    30 1   
    21     9    10 ar  
    22     9    31 1   
    23    10    11 ar  
    24    10    32 1   
    25    11    19 ar  
    26    11    27 1   
    27    12    17 1   
    28    12    22 1   
    29    12    24 2   
    30    13    14 1   
    31    13    15 1   
    32    13    22 1   
    33    13    33 1   
    34    14    25 1   
    35    14    34 1   
    36    14    35 1   
    37    15    25 1   
    38    15    36 1   
    39    15    37 1   
    40    16    38 1   
    41    17    26 1   
    42    18    26 1   
    43    18    39 1   
    44    19    21 1   
    45    21    40 1   
    46    22    41 1   
    47    42    44 1   
@<TRIPOS>SUBSTRUCTURE
     1 X3Y         1 TEMP              0 ****  ****    0 ROOT
