@<TRIPOS>MOLECULE
X3Z
   55    57     1     0     0
SMALL
No Charge or Current Charge


@<TRIPOS>ATOM
      1 C10        157.9010   140.7470   123.8330 c3         1 X3Z       0.278100
      2 C13        160.1330   137.8670   122.6170 ca         1 X3Z      -0.092000
      3 C15        161.1880   138.8370   124.5770 ca         1 X3Z      -0.084000
      4 C21        156.5610   136.8040   129.2100 c3         1 X3Z       0.237500
      5 C22        157.8850   136.1200   129.6950 c3         1 X3Z       0.158600
      6 C24        155.7900   137.4720   130.4120 c3         1 X3Z       0.145300
      7 C26        154.4130   138.1120   130.0360 c3         1 X3Z       0.127600
      8 C01        153.5720   134.2710   125.7320 c3         1 X3Z      -0.085100
      9 C03        151.9880   135.9960   126.7700 c3         1 X3Z      -0.085100
     10 C04        153.6310   136.6890   124.9640 cc         1 X3Z      -0.328800
     11 C05        153.4500   137.2800   123.6960 cc         1 X3Z       0.413500
     12 C08        156.1920   139.1230   124.8010 cc         1 X3Z       0.416000
     13 C11        159.0690   139.7560   123.7600 ca         1 X3Z      -0.089300
     14 C12        159.0850   138.7970   122.7230 ca         1 X3Z      -0.094000
     15 C14        161.1840   137.8850   123.5460 ca         1 X3Z      -0.107000
     16 C16        160.1420   139.7710   124.6890 ca         1 X3Z      -0.014900
     17 C18        156.7590   138.9120   126.0380 cd         1 X3Z      -0.373000
     18 C19        156.2490   137.9200   126.9270 cd         1 X3Z       0.700900
     19 C29        154.6970   137.3600   125.4790 cd         1 X3Z       0.474500
     20 N06        154.3020   138.2460   123.3850 nd         1 X3Z      -0.634100
     21 N07        155.1030   138.2950   124.5360 na         1 X3Z       0.041900
     22 N09        156.6050   140.0440   123.8660 nu         1 X3Z      -0.970200
     23 N20        156.8680   137.7770   128.1200 nu         1 X3Z      -0.901100
     24 N28        155.1950   137.0690   126.7250 nd         1 X3Z      -0.787000
     25 O25        155.5500   136.4770   131.4310 oh         1 X3Z      -0.656000
     26 O27        154.5570   139.3950   129.4000 oh         1 X3Z      -0.666000
     27 Br17       160.2430   141.0450   126.1240 br         1 X3Z      -0.108100
     28 H1         157.9820   141.4010   124.7100 h1         1 X3Z       0.072200
     29 H2         157.9480   141.4020   122.9510 h1         1 X3Z       0.072200
     30 H3         160.1280   137.1320   121.8150 ha         1 X3Z       0.122000
     31 H4         162.0070   138.8520   125.2930 ha         1 X3Z       0.130000
     32 H5         155.9200   135.9930   128.8370 h1         1 X3Z       0.116700
     33 H6         157.6440   135.3580   130.4480 h1         1 X3Z       0.025700
     34 H7         158.5140   136.8750   130.1850 h1         1 X3Z       0.025700
     35 H8         156.4290   138.2630   130.8270 h1         1 X3Z       0.037700
     36 H9         153.8140   138.2290   130.9490 h1         1 X3Z       0.033200
     37 H10        153.8680   137.4210   129.3790 h1         1 X3Z       0.033200
     38 H11        152.9050   133.4510   126.0230 hc         1 X3Z       0.033200
     39 H12        154.0910   133.9770   124.8120 hc         1 X3Z       0.033200
     40 H13        154.3200   134.3980   126.5230 hc         1 X3Z       0.033200
     41 H14        152.0140   135.3360   124.7470 hc         1 X3Z       0.035700
     42 H15        151.2890   135.2080   127.0740 hc         1 X3Z       0.033200
     43 H16        152.6660   136.1910   127.6090 hc         1 X3Z       0.033200
     44 H17        151.4100   136.9070   126.5760 hc         1 X3Z       0.033200
     45 H18        152.6920   137.0180   122.9690 h4         1 X3Z       0.037800
     46 H19        158.2770   138.7700   121.9950 ha         1 X3Z       0.128000
     47 H20        161.9960   137.1650   123.4650 ha         1 X3Z       0.120000
     48 H21        157.6030   139.5110   126.3440 ha         1 X3Z       0.138000
     49 H22        156.0560   140.0050   123.0030 hn         1 X3Z       0.531000
     50 H23        157.7170   138.3230   128.2030 hn         1 X3Z       0.486000
     51 H24        159.4300   135.1220   128.9950 ho         1 X3Z       0.440000
     52 H25        155.2430   136.9510   132.2350 ho         1 X3Z       0.447000
     53 H26        153.6600   139.6760   129.1120 ho         1 X3Z       0.452000
     54 O23        158.6120   135.5060   128.6100 oh         1 X3Z      -0.644000
     55 C02        152.7690   135.5710   125.5080 c3         1 X3Z       0.041500
@<TRIPOS>BOND
     1     1    13 1   
     2     1    22 1   
     3     1    28 1   
     4     1    29 1   
     5     2    14 ar  
     6     2    15 ar  
     7     2    30 1   
     8     3    15 ar  
     9     3    16 ar  
    10     3    31 1   
    11     4     5 1   
    12     4     6 1   
    13     4    23 1   
    14     4    32 1   
    15     5    33 1   
    16     5    34 1   
    17     5    54 1   
    18     6     7 1   
    19     6    25 1   
    20     6    35 1   
    21     7    26 1   
    22     7    36 1   
    23     7    37 1   
    24     8    38 1   
    25     8    39 1   
    26     8    40 1   
    27     8    55 1   
    28     9    42 1   
    29     9    43 1   
    30     9    44 1   
    31     9    55 1   
    32    10    11 1   
    33    10    19 2   
    34    10    55 1   
    35    11    20 2   
    36    11    45 1   
    37    12    17 2   
    38    12    21 1   
    39    12    22 1   
    40    13    14 ar  
    41    13    16 ar  
    42    14    46 1   
    43    15    47 1   
    44    16    27 1   
    45    17    18 1   
    46    17    48 1   
    47    18    23 1   
    48    18    24 2   
    49    19    21 1   
    50    19    24 1   
    51    20    21 1   
    52    22    49 1   
    53    23    50 1   
    54    25    52 1   
    55    26    53 1   
    56    41    55 1   
    57    51    54 1   
@<TRIPOS>SUBSTRUCTURE
     1 X3Z         1 TEMP              0 ****  ****    0 ROOT
