@<TRIPOS>MOLECULE
X3Z
   55    57     1     0     0
SMALL
abcg2


@<TRIPOS>ATOM
      1 C10        157.7700   140.5420   124.1910 c3         1 X3Z       0.278100
      2 C13        160.4090   138.0540   122.9990 ca         1 X3Z      -0.092000
      3 C15        161.5340   140.0420   123.7310 ca         1 X3Z      -0.084000
      4 C21        156.3850   136.5370   129.3010 c3         1 X3Z       0.237500
      5 C22        157.4360   135.5840   129.8590 c3         1 X3Z       0.158600
      6 C24        155.8470   137.4720   130.3940 c3         1 X3Z       0.145300
      7 C26        154.8090   138.4770   129.8910 c3         1 X3Z       0.127600
      8 C01        153.2900   134.1910   125.5940 c3         1 X3Z      -0.085100
      9 C03        151.8790   135.9500   126.7200 c3         1 X3Z      -0.085100
     10 C04        153.5110   136.5960   124.9270 cc         1 X3Z      -0.328800
     11 C05        153.4550   137.2900   123.7120 cc         1 X3Z       0.413500
     12 C08        156.2710   138.7700   124.9620 cc         1 X3Z       0.416000
     13 C11        159.1060   139.9130   123.8530 ca         1 X3Z      -0.089300
     14 C12        159.1890   138.6300   123.3200 ca         1 X3Z      -0.094000
     15 C14        161.5850   138.7590   123.2080 ca         1 X3Z      -0.107000
     16 C16        160.3040   140.6010   124.0430 ca         1 X3Z      -0.014900
     17 C18        156.8870   138.5010   126.1580 cd         1 X3Z      -0.373000
     18 C19        156.3120   137.5340   127.0320 cd         1 X3Z       0.700900
     19 C29        154.6410   137.1130   125.5570 cd         1 X3Z       0.474500
     20 N06        154.4320   138.1680   123.5510 nd         1 X3Z      -0.634100
     21 N07        155.1470   138.0470   124.6820 na         1 X3Z       0.041900
     22 N09        156.6420   139.6680   124.0400 nu         1 X3Z      -0.970200
     23 N20        156.9420   137.2870   128.2010 nu         1 X3Z      -0.901100
     24 N28        155.2170   136.8570   126.7400 nd         1 X3Z      -0.787000
     25 O25        155.2630   136.6430   131.3760 oh         1 X3Z      -0.656000
     26 O27        155.4480   139.5440   129.2310 oh         1 X3Z      -0.666000
     27 BR17       160.2900   142.3670   124.7340 br         1 X3Z      -0.108100
     28 H1         157.7890   140.9340   125.2120 h1         1 X3Z       0.072200
     29 H2         157.5990   141.4040   123.5430 h1         1 X3Z       0.072200
     30 H3         160.4380   137.0540   122.5880 ha         1 X3Z       0.122000
     31 H4         162.4480   140.5980   123.8900 ha         1 X3Z       0.130000
     32 H5         155.5490   135.9540   128.9090 h1         1 X3Z       0.116700
     33 H6         157.0170   135.0490   130.7160 h1         1 X3Z       0.025700
     34 H7         158.2850   136.1750   130.2330 h1         1 X3Z       0.025700
     35 H8         156.6920   138.0420   130.8130 h1         1 X3Z       0.037700
     36 H9         154.2500   138.8400   130.7660 h1         1 X3Z       0.033200
     37 H10        154.0840   137.9640   129.2450 h1         1 X3Z       0.033200
     38 H11        152.5890   133.4160   125.9120 hc         1 X3Z       0.033200
     39 H12        153.7480   133.8660   124.6600 hc         1 X3Z       0.033200
     40 H13        154.0760   134.2590   126.3470 hc         1 X3Z       0.033200
     41 H14        151.8060   135.4050   124.6570 hc         1 X3Z       0.035700
     42 H15        151.1830   135.1770   127.0510 hc         1 X3Z       0.033200
     43 H16        152.6040   136.1110   127.5190 hc         1 X3Z       0.033200
     44 H17        151.3160   136.8740   126.5870 hc         1 X3Z       0.033200
     45 H18        152.7130   137.1700   122.9340 h4         1 X3Z       0.037800
     46 H19        158.2790   138.0710   123.1470 ha         1 X3Z       0.128000
     47 H20        162.5420   138.3190   122.9630 ha         1 X3Z       0.120000
     48 H21        157.7920   139.0210   126.4410 ha         1 X3Z       0.138000
     49 H22        156.0920   139.7140   123.1960 hn         1 X3Z       0.531000
     50 H23        157.7140   137.8960   128.4250 hn         1 X3Z       0.486000
     51 H24        158.4660   134.0820   129.2090 ho         1 X3Z       0.440000
     52 H25        155.0710   137.1760   132.1540 ho         1 X3Z       0.447000
     53 H26        154.7700   140.1400   128.9020 ho         1 X3Z       0.452000
     54 O23        157.8280   134.6980   128.8380 oh         1 X3Z      -0.644000
     55 C02        152.5770   135.5340   125.4240 c3         1 X3Z       0.041500
@<TRIPOS>BOND
     1     1    13 1   
     2     1    22 1   
     3     1    28 1   
     4     1    29 1   
     5     2    14 ar  
     6     2    15 ar  
     7     2    30 1   
     8     3    15 ar  
     9     3    16 ar  
    10     3    31 1   
    11     4     5 1   
    12     4     6 1   
    13     4    23 1   
    14     4    32 1   
    15     5    33 1   
    16     5    34 1   
    17     5    54 1   
    18     6     7 1   
    19     6    25 1   
    20     6    35 1   
    21     7    26 1   
    22     7    36 1   
    23     7    37 1   
    24     8    38 1   
    25     8    39 1   
    26     8    40 1   
    27     8    55 1   
    28     9    42 1   
    29     9    43 1   
    30     9    44 1   
    31     9    55 1   
    32    10    11 1   
    33    10    19 2   
    34    10    55 1   
    35    11    20 2   
    36    11    45 1   
    37    12    17 2   
    38    12    21 1   
    39    12    22 1   
    40    13    14 ar  
    41    13    16 ar  
    42    14    46 1   
    43    15    47 1   
    44    16    27 1   
    45    17    18 1   
    46    17    48 1   
    47    18    23 1   
    48    18    24 2   
    49    19    21 1   
    50    19    24 1   
    51    20    21 1   
    52    22    49 1   
    53    23    50 1   
    54    25    52 1   
    55    26    53 1   
    56    41    55 1   
    57    51    54 1   
@<TRIPOS>SUBSTRUCTURE
     1 X3Z         1 TEMP              0 ****  ****    0 ROOT
