@<TRIPOS>MOLECULE
X40
   38    40     1     0     0
SMALL
No Charge or Current Charge


@<TRIPOS>ATOM
      1 N01          0.5300     1.1030     0.2020 nc         1 X40      -0.793000
      2 N02         -0.4970    -0.9610     0.3000 nu         1 X40      -0.917900
      3 N03          7.4420    -0.6270     0.7170 nb         1 X40      -0.670000
      4 N04          1.7430     2.9230     0.1620 nv         1 X40      -1.044900
      5 N05         -6.8140    -0.8760    -1.4800 n8         1 X40      -1.009100
      6 C06          2.8330     0.7700     0.0830 cd         1 X40      -0.467600
      7 C07          1.7680     1.6090     0.1510 cc         1 X40       0.692900
      8 C08          0.6230    -0.2040     0.1860 cd         1 X40       0.760300
      9 C09         -1.8650    -0.7110     0.1950 ca         1 X40       0.356000
     10 C10          4.2400     1.2080    -0.0010 c          1 X40       0.651300
     11 C11          5.3020     0.1640    -0.1040 ca         1 X40      -0.206600
     12 C12          5.2510    -0.8810    -1.0480 ca         1 X40      -0.049000
     13 C13          6.3130    -1.7990    -1.0750 ca         1 X40      -0.173000
     14 C14          7.3810    -1.6390    -0.1780 ca         1 X40       0.349900
     15 C15          6.4170     0.2590     0.7420 ca         1 X40       0.380900
     16 C16         -2.3850     0.3930    -0.5060 ca         1 X40      -0.175000
     17 C17         -3.7730     0.5920    -0.6010 ca         1 X40       0.023000
     18 C18         -4.6560    -0.3230     0.0030 ca         1 X40      -0.307500
     19 C19         -4.1430    -1.4390     0.6910 ca         1 X40       0.023000
     20 C20         -2.7530    -1.6280     0.7780 ca         1 X40      -0.175000
     21 O21          4.5500     2.3920     0.0030 o          1 X40      -0.584100
     22 O22         -6.7410     1.3150    -0.4320 o          1 X40      -0.545000
     23 O23         -7.1300    -0.8180     0.9280 o          1 X40      -0.545000
     24 S24          2.2490    -0.8880     0.1600 ss         1 X40      -0.064400
     25 S25         -6.4270    -0.0760    -0.1150 sy         1 X40       1.135600
     26 HN02        -0.2650    -1.9140     0.5610 hn         1 X40       0.512000
     27 HN04         0.8660     3.3260    -0.1380 hn         1 X40       0.519000
     28 HN0A         2.5950     3.3800    -0.1430 hn         1 X40       0.519000
     29 HN05        -7.5660    -1.4670    -1.1370 hn         1 X40       0.474000
     30 HN0B        -7.3240    -0.1500    -1.9780 hn         1 X40       0.474000
     31 H12          4.4230    -0.9740    -1.7480 ha         1 X40       0.126000
     32 H13          6.3170    -2.6230    -1.7840 ha         1 X40       0.125000
     33 H14          8.2170    -2.3380    -0.1800 h4         1 X40       0.020100
     34 H15          6.4960     1.0630     1.4730 h4         1 X40       0.033100
     35 H16         -1.7230     1.0970    -0.9970 ha         1 X40       0.137000
     36 H17         -4.1540     1.4530    -1.1490 ha         1 X40       0.139000
     37 H19         -4.8130    -2.1620     1.1550 ha         1 X40       0.139000
     38 H20         -2.3690    -2.4920     1.3120 ha         1 X40       0.137000
@<TRIPOS>BOND
     1     1     7 1   
     2     1     8 2   
     3     2     8 1   
     4     2     9 1   
     5     2    26 1   
     6     3    14 ar  
     7     3    15 ar  
     8     4     7 1   
     9     4    27 1   
    10     4    28 1   
    11     5    25 1   
    12     5    29 1   
    13     5    30 1   
    14     6     7 2   
    15     6    10 1   
    16     6    24 1   
    17     8    24 1   
    18     9    16 ar  
    19     9    20 ar  
    20    10    11 1   
    21    10    21 2   
    22    11    12 ar  
    23    11    15 ar  
    24    12    13 ar  
    25    12    31 1   
    26    13    14 ar  
    27    13    32 1   
    28    14    33 1   
    29    15    34 1   
    30    16    17 ar  
    31    16    35 1   
    32    17    18 ar  
    33    17    36 1   
    34    18    19 ar  
    35    18    25 1   
    36    19    20 ar  
    37    19    37 1   
    38    20    38 1   
    39    22    25 2   
    40    23    25 2   
@<TRIPOS>SUBSTRUCTURE
     1 X40         1 TEMP              0 ****  ****    0 ROOT
