@<TRIPOS>MOLECULE
X40
   38    40     1     0     0
SMALL
bcc


@<TRIPOS>ATOM
      1 N01          0.4800     1.1810    -0.0480 nc         1 X40      -0.793000
      2 N02         -0.4780    -0.9390     0.2990 nu         1 X40      -0.724300
      3 N03          7.2630    -0.6580     0.8070 nb         1 X40      -0.670000
      4 N04          1.7930     3.0610    -0.3340 nv         1 X40      -0.934500
      5 N05         -6.7220    -1.0360    -1.3200 n8         1 X40      -0.898700
      6 C06          2.7950     0.8660    -0.0510 cd         1 X40      -0.388000
      7 C07          1.7090     1.7470    -0.1520 cc         1 X40       0.758200
      8 C08          0.5680    -0.1010     0.1520 cd         1 X40       0.760300
      9 C09         -1.8390    -0.6730     0.2220 ca         1 X40       0.217600
     10 C10          4.1690     1.2220    -0.1130 c          1 X40       0.651300
     11 C11          5.1900     0.1340    -0.0950 ca         1 X40      -0.271900
     12 C12          5.1300    -0.9640    -0.9460 ca         1 X40      -0.067000
     13 C13          6.1520    -1.8990    -0.9060 ca         1 X40      -0.256300
     14 C14          7.1900    -1.7050    -0.0090 ca         1 X40       0.415200
     15 C15          6.2920     0.2410     0.7520 ca         1 X40       0.446200
     16 C16         -2.3840     0.5800    -0.0580 ca         1 X40      -0.193000
     17 C17         -3.7600     0.7310    -0.1250 ca         1 X40       0.005000
     18 C18         -4.5940    -0.3530     0.0860 ca         1 X40      -0.307500
     19 C19         -4.0610    -1.6070     0.3730 ca         1 X40       0.005000
     20 C20         -2.6960    -1.7630     0.4380 ca         1 X40      -0.193000
     21 O21          4.5470     2.3950    -0.1720 o          1 X40      -0.584100
     22 O22         -6.6280     1.2660    -0.1280 o          1 X40      -0.615800
     23 O23         -6.9570    -0.8620     1.1410 o          1 X40      -0.615800
     24 S24          2.1740    -0.7520     0.2270 ss         1 X40      -0.209300
     25 S25         -6.3450    -0.1560     0.0250 sy         1 X40       1.277200
     26 HN02        -0.2480    -1.9050     0.4800 hn         1 X40       0.456800
     27 HN04         0.9580     3.6020    -0.4760 hn         1 X40       0.463800
     28 HN0A         2.6930     3.4980    -0.4390 hn         1 X40       0.463800
     29 HN05        -7.7000    -1.3080    -1.3290 hn         1 X40       0.418800
     30 HN0B        -6.4790    -0.5590    -2.1830 hn         1 X40       0.418800
     31 H12          4.3170    -1.0790    -1.6520 ha         1 X40       0.144000
     32 H13          6.1480    -2.7590    -1.5600 ha         1 X40       0.143000
     33 H14          8.0020    -2.4210     0.0490 h4         1 X40       0.020100
     34 H15          6.3780     1.0880     1.4230 h4         1 X40       0.033100
     35 H16         -1.7480     1.4340    -0.2240 ha         1 X40       0.155000
     36 H17         -4.1660     1.7080    -0.3470 ha         1 X40       0.157000
     37 H19         -4.7020    -2.4620     0.5420 ha         1 X40       0.157000
     38 H20         -2.2830    -2.7380     0.6620 ha         1 X40       0.155000
@<TRIPOS>BOND
     1     1     7 1   
     2     1     8 2   
     3     2     8 1   
     4     2     9 1   
     5     2    26 1   
     6     3    14 ar  
     7     3    15 ar  
     8     4     7 1   
     9     4    27 1   
    10     4    28 1   
    11     5    25 1   
    12     5    29 1   
    13     5    30 1   
    14     6     7 2   
    15     6    10 1   
    16     6    24 1   
    17     8    24 1   
    18     9    16 ar  
    19     9    20 ar  
    20    10    11 1   
    21    10    21 2   
    22    11    12 ar  
    23    11    15 ar  
    24    12    13 ar  
    25    12    31 1   
    26    13    14 ar  
    27    13    32 1   
    28    14    33 1   
    29    15    34 1   
    30    16    17 ar  
    31    16    35 1   
    32    17    18 ar  
    33    17    36 1   
    34    18    19 ar  
    35    18    25 1   
    36    19    20 ar  
    37    19    37 1   
    38    20    38 1   
    39    22    25 2   
    40    23    25 2   
@<TRIPOS>SUBSTRUCTURE
     1 X40         1 TEMP              0 ****  ****    0 ROOT
