@<TRIPOS>MOLECULE
X42
   39    41     1     0     0
SMALL
No Charge or Current Charge


@<TRIPOS>ATOM
      1 N01          0.1400     1.0140     0.6290 nc         1 X42      -0.795000
      2 N02         -0.7460    -0.9380    -0.2250 nu         1 X42      -0.917900
      3 N03          1.2280     2.7510     1.3930 nv         1 X42      -1.044900
      4 N04         -7.0540    -0.0100     1.1700 n8         1 X42      -0.994100
      5 C05          2.4600     0.9030     0.4540 cd         1 X42      -0.468600
      6 C06          1.3410     1.5660     0.8380 cc         1 X42       0.693900
      7 C07          0.3220    -0.1420     0.0390 cd         1 X42       0.757300
      8 C08         -2.1280    -0.7480    -0.2530 ca         1 X42       0.358000
      9 C09          3.8230     1.4690     0.5010 c          1 X42       0.645300
     10 C10          4.9770     0.5910     0.0840 ca         1 X42      -0.124600
     11 C11          5.9580     1.0960    -0.7970 ca         1 X42      -0.082000
     12 C12          7.0490     0.2980    -1.1860 ca         1 X42      -0.091000
     13 C13          7.1760    -1.0100    -0.6890 ca         1 X42      -0.138000
     14 C14          6.2150    -1.5130     0.2010 ca         1 X42       0.164000
     15 C15          5.1240    -0.7210     0.5920 ca         1 X42      -0.132000
     16 C16         -2.9530    -1.8800    -0.1600 ca         1 X42      -0.173500
     17 C17         -4.3520    -1.7560    -0.2000 ca         1 X42       0.015000
     18 C18         -4.9390    -0.4830    -0.3440 ca         1 X42      -0.353500
     19 C19         -4.1170     0.6550    -0.4540 ca         1 X42       0.015000
     20 C20         -2.7190     0.5180    -0.4120 ca         1 X42      -0.173500
     21 O21          4.0280     2.6240     0.8560 o          1 X42      -0.585100
     22 O22         -7.3410    -1.6050    -0.6550 o          1 X42      -0.530000
     23 O23         -7.0950     0.9120    -1.1150 o          1 X42      -0.530000
     24 F24          6.3430    -2.7650     0.6890 f          1 X42      -0.179000
     25 S25          1.9900    -0.6470    -0.2340 ss         1 X42      -0.055400
     26 S26         -6.7200    -0.3080    -0.4010 sy         1 X42       1.144600
     27 HN02        -0.4510    -1.8920    -0.4030 hn         1 X42       0.512000
     28 HN03         0.3230     3.1810     1.2620 hn         1 X42       0.519500
     29 HN0A         2.0410     3.3500     1.2930 hn         1 X42       0.519500
     30 HN04        -6.2100    -0.3420     1.6290 hn         1 X42       0.474000
     31 HN0B        -7.7390    -0.7360     1.3620 hn         1 X42       0.474000
     32 H11          5.8700     2.1090    -1.1860 ha         1 X42       0.132000
     33 H12          7.7960     0.6950    -1.8710 ha         1 X42       0.121000
     34 H13          8.0180    -1.6310    -0.9860 ha         1 X42       0.133000
     35 H15          4.4030    -1.1230     1.2980 ha         1 X42       0.138000
     36 H16         -2.5120    -2.8660    -0.0490 ha         1 X42       0.138000
     37 H17         -4.9690    -2.6510    -0.1220 ha         1 X42       0.138000
     38 H19         -4.5530     1.6470    -0.5750 ha         1 X42       0.138000
     39 H20         -2.1050     1.4040    -0.5200 ha         1 X42       0.138000
@<TRIPOS>BOND
     1     1     6 1   
     2     1     7 2   
     3     2     7 1   
     4     2     8 1   
     5     2    27 1   
     6     3     6 1   
     7     3    28 1   
     8     3    29 1   
     9     4    26 1   
    10     4    30 1   
    11     4    31 1   
    12     5     6 2   
    13     5     9 1   
    14     5    25 1   
    15     7    25 1   
    16     8    16 ar  
    17     8    20 ar  
    18     9    10 1   
    19     9    21 2   
    20    10    11 ar  
    21    10    15 ar  
    22    11    12 ar  
    23    11    32 1   
    24    12    13 ar  
    25    12    33 1   
    26    13    14 ar  
    27    13    34 1   
    28    14    15 ar  
    29    14    24 1   
    30    15    35 1   
    31    16    17 ar  
    32    16    36 1   
    33    17    18 ar  
    34    17    37 1   
    35    18    19 ar  
    36    18    26 1   
    37    19    20 ar  
    38    19    38 1   
    39    20    39 1   
    40    22    26 2   
    41    23    26 2   
@<TRIPOS>SUBSTRUCTURE
     1 X42         1 TEMP              0 ****  ****    0 ROOT
