@<TRIPOS>MOLECULE
X43
   41    43     1     0     0
SMALL
No Charge or Current Charge


@<TRIPOS>ATOM
      1 N1           0.4940    -1.0510     0.0850 nc         1 X43      -0.793000
      2 C2          -0.7280    -1.5870    -0.0060 cc         1 X43       0.699900
      3 N3          -0.6740    -2.8990     0.0340 nv         1 X43      -1.040900
      4 C4          -1.8080    -0.7760    -0.1340 cd         1 X43      -0.473600
      5 C5          -3.2010    -1.2490    -0.2650 c          1 X43       0.646300
      6 C6          -4.2890    -0.2240    -0.4300 ca         1 X43      -0.160600
      7 C7          -5.4340    -0.2940     0.3900 ca         1 X43      -0.005000
      8 C8          -6.4820     0.6470     0.2470 ca         1 X43      -0.185200
      9 C9          -6.3740     1.6540    -0.7400 ca         1 X43      -0.036000
     10 C10         -5.2420     1.7100    -1.5700 ca         1 X43      -0.128000
     11 C11         -4.2060     0.7740    -1.4220 ca         1 X43      -0.046000
     12 O12         -3.4830    -2.4400    -0.2460 o          1 X43      -0.578100
     13 S13         -1.2670     0.8980    -0.0690 ss         1 X43      -0.073400
     14 C14          0.3710     0.2530     0.0370 cd         1 X43       0.768300
     15 N15          1.4670     1.0400     0.1800 nu         1 X43      -0.916900
     16 C16          2.8450     0.8210     0.1370 ca         1 X43       0.354000
     17 N17         -7.6910     0.5750     1.1290 no         1 X43       0.695200
     18 O18         -7.7410    -0.3210     1.9820 o          1 X43      -0.396500
     19 O19         -8.5860     1.4150     0.9660 o          1 X43      -0.396500
     20 C20          3.6850     1.7730     0.7350 ca         1 X43      -0.173000
     21 C21          5.0810     1.6170     0.7100 ca         1 X43       0.022000
     22 C22          5.6500     0.5000     0.0690 ca         1 X43      -0.304500
     23 C23          4.8140    -0.4510    -0.5480 ca         1 X43       0.022000
     24 C24          3.4190    -0.2840    -0.5150 ca         1 X43      -0.173000
     25 S25          7.4290     0.2880     0.0230 sy         1 X43       1.131600
     26 O26          7.8200    -0.5200    -1.1310 o          1 X43      -0.544500
     27 O27          8.0920     1.5400     0.3800 o          1 X43      -0.544500
     28 N28          7.6790    -0.6720     1.3220 n8         1 X43      -1.001100
     29 HN3          0.2230    -3.2870    -0.2240 hn         1 X43       0.521000
     30 HN3A        -1.5030    -3.3810    -0.2950 hn         1 X43       0.521000
     31 H7          -5.4970    -1.0800     1.1420 ha         1 X43       0.164000
     32 H9          -7.1640     2.3920    -0.8760 ha         1 X43       0.152000
     33 H10         -5.1700     2.4800    -2.3350 ha         1 X43       0.130000
     34 H11         -3.3460     0.8200    -2.0860 ha         1 X43       0.132000
     35 HN15         1.2010     1.9920     0.4100 hn         1 X43       0.512000
     36 H20          3.2580     2.6390     1.2330 ha         1 X43       0.137000
     37 H21          5.7110     2.3680     1.1860 ha         1 X43       0.140000
     38 H23          5.2380    -1.3160    -1.0570 ha         1 X43       0.140000
     39 H24          2.7960    -1.0160    -1.0150 ha         1 X43       0.137000
     40 HN28         6.8500    -0.4970     1.8830 hn         1 X43       0.472500
     41 HN2A         8.4130    -0.1570     1.8040 hn         1 X43       0.472500
@<TRIPOS>BOND
     1     1     2 1   
     2     1    14 2   
     3     2     3 1   
     4     2     4 2   
     5     3    29 1   
     6     3    30 1   
     7     4     5 1   
     8     4    13 1   
     9     5     6 1   
    10     5    12 2   
    11     6     7 ar  
    12     6    11 ar  
    13     7     8 ar  
    14     7    31 1   
    15     8     9 ar  
    16     8    17 1   
    17     9    10 ar  
    18     9    32 1   
    19    10    11 ar  
    20    10    33 1   
    21    11    34 1   
    22    13    14 1   
    23    14    15 1   
    24    15    16 1   
    25    15    35 1   
    26    16    20 ar  
    27    16    24 ar  
    28    17    18 1   
    29    17    19 1   
    30    20    21 ar  
    31    20    36 1   
    32    21    22 ar  
    33    21    37 1   
    34    22    23 ar  
    35    22    25 1   
    36    23    24 ar  
    37    23    38 1   
    38    24    39 1   
    39    25    26 2   
    40    25    27 2   
    41    25    28 1   
    42    28    40 1   
    43    28    41 1   
@<TRIPOS>SUBSTRUCTURE
     1 X43         1 TEMP              0 ****  ****    0 ROOT
