@<TRIPOS>MOLECULE
X43
   41    43     1     0     0
SMALL
bcc


@<TRIPOS>ATOM
      1 N1           0.4990    -1.1200    -0.2740 nc         1 X43      -0.793000
      2 C2          -0.7100    -1.7160    -0.4310 cc         1 X43       0.765200
      3 N3          -0.7540    -3.0290    -0.6250 nv         1 X43      -0.930500
      4 C4          -1.8220    -0.8620    -0.3720 cd         1 X43      -0.394000
      5 C5          -3.1810    -1.2520    -0.4710 c          1 X43       0.646300
      6 C6          -4.2290    -0.1820    -0.4680 ca         1 X43      -0.160600
      7 C7          -5.3170    -0.3160     0.3860 ca         1 X43      -0.023000
      8 C8          -6.3030     0.6560     0.3680 ca         1 X43      -0.185200
      9 C9          -6.2550     1.7390    -0.4990 ca         1 X43      -0.054000
     10 C10         -5.1790     1.8480    -1.3620 ca         1 X43      -0.146000
     11 C11         -4.1670     0.8980    -1.3440 ca         1 X43      -0.064000
     12 O12         -3.5340    -2.4310    -0.5460 o          1 X43      -0.578100
     13 S13         -1.2530     0.7700    -0.0640 ss         1 X43      -0.218300
     14 C14          0.3710     0.1580    -0.0720 cd         1 X43       0.768300
     15 N15          1.3860     1.0220     0.1270 nu         1 X43      -0.723300
     16 C16          2.7560     0.7910     0.1350 ca         1 X43       0.215600
     17 N17         -7.4310     0.5320     1.2830 no         1 X43       0.315200
     18 O18         -7.4360    -0.3970     2.0550 o          1 X43      -0.206500
     19 O19         -8.3020     1.3660     1.2240 o          1 X43      -0.206500
     20 C20          3.5680     1.8980     0.3990 ca         1 X43      -0.191000
     21 C21          4.9430     1.7760     0.4230 ca         1 X43       0.004000
     22 C22          5.5210     0.5370     0.1830 ca         1 X43      -0.304500
     23 C23          4.7260    -0.5700    -0.0830 ca         1 X43       0.004000
     24 C24          3.3490    -0.4520    -0.1080 ca         1 X43      -0.191000
     25 S25          7.2750     0.3610     0.2030 sy         1 X43       1.273200
     26 O26          7.6860    -0.5980    -0.8130 o          1 X43      -0.615300
     27 O27          7.8540     1.6980     0.1670 o          1 X43      -0.615300
     28 N28          7.5070    -0.4010     1.6520 n8         1 X43      -0.890700
     29 HN3          0.0980    -3.5530    -0.7150 hn         1 X43       0.465800
     30 HN3A        -1.6380    -3.4910    -0.7580 hn         1 X43       0.465800
     31 H7          -5.3750    -1.1610     1.0570 ha         1 X43       0.182000
     32 H9          -7.0360     2.4850    -0.5090 ha         1 X43       0.170000
     33 H10         -5.1310     2.6760    -2.0540 ha         1 X43       0.148000
     34 H11         -3.3420     0.9910    -2.0380 ha         1 X43       0.150000
     35 HN15         1.1220     1.9810     0.2980 hn         1 X43       0.456800
     36 H20          3.1200     2.8650     0.5880 ha         1 X43       0.155000
     37 H21          5.5490     2.6480     0.6280 ha         1 X43       0.158000
     38 H23          5.1700    -1.5380    -0.2760 ha         1 X43       0.158000
     39 H24          2.7460    -1.3210    -0.3170 ha         1 X43       0.155000
     40 HN28         7.3730     0.2180     2.4450 hn         1 X43       0.417300
     41 HN2A         8.4250    -0.8350     1.6980 hn         1 X43       0.417300
@<TRIPOS>BOND
     1     1     2 1   
     2     1    14 2   
     3     2     3 1   
     4     2     4 2   
     5     3    29 1   
     6     3    30 1   
     7     4     5 1   
     8     4    13 1   
     9     5     6 1   
    10     5    12 2   
    11     6     7 ar  
    12     6    11 ar  
    13     7     8 ar  
    14     7    31 1   
    15     8     9 ar  
    16     8    17 1   
    17     9    10 ar  
    18     9    32 1   
    19    10    11 ar  
    20    10    33 1   
    21    11    34 1   
    22    13    14 1   
    23    14    15 1   
    24    15    16 1   
    25    15    35 1   
    26    16    20 ar  
    27    16    24 ar  
    28    17    18 1   
    29    17    19 1   
    30    20    21 ar  
    31    20    36 1   
    32    21    22 ar  
    33    21    37 1   
    34    22    23 ar  
    35    22    25 1   
    36    23    24 ar  
    37    23    38 1   
    38    24    39 1   
    39    25    26 2   
    40    25    27 2   
    41    25    28 1   
    42    28    40 1   
    43    28    41 1   
@<TRIPOS>SUBSTRUCTURE
     1 X43         1 TEMP              0 ****  ****    0 ROOT
