@<TRIPOS>MOLECULE
X44
   44    46     1     0     0
SMALL
abcg2


@<TRIPOS>ATOM
      1 N01         -1.3000     1.4560     0.2430 nc         1 X44      -0.795000
      2 N02         -1.9340    -0.7430    -0.2960 nu         1 X44      -0.916900
      3 N03         -0.2760     3.4740     0.7070 nv         1 X44      -1.043900
      4 N04         -8.2070    -0.8220     1.3520 n8         1 X44      -1.002100
      5 N05          8.3560    -0.4660     0.6790 n8         1 X44      -1.006100
      6 C06          1.0380     1.4800     0.2700 cd         1 X44      -0.472600
      7 C07         -0.1680     2.1830     0.4180 cc         1 X44       0.697900
      8 C08         -1.0240     0.2210    -0.0570 cd         1 X44       0.764300
      9 C09         -3.3220    -0.6770    -0.2580 ca         1 X44       0.356000
     10 C10          2.3380     2.0360     0.3680 c          1 X44       0.640300
     11 C11          3.5250     1.1350     0.2260 ca         1 X44      -0.095600
     12 C12         -4.0080    -1.8350    -0.6350 ca         1 X44      -0.173500
     13 C13         -5.3880    -1.8710    -0.6320 ca         1 X44       0.022000
     14 C14         -6.0980    -0.7430    -0.2440 ca         1 X44      -0.305500
     15 C15         -5.4280     0.4120     0.1370 ca         1 X44       0.022000
     16 C16         -4.0460     0.4530     0.1330 ca         1 X44      -0.173500
     17 C17          4.5650     1.5250    -0.6170 ca         1 X44      -0.099000
     18 C18          5.6990     0.7440    -0.7360 ca         1 X44      -0.017500
     19 C19          5.8010    -0.4190     0.0190 ca         1 X44      -0.256500
     20 C20          4.7870    -0.8150     0.8740 ca         1 X44      -0.017500
     21 C21          3.6440    -0.0330     0.9710 ca         1 X44      -0.099000
     22 O22          2.5340     3.2410     0.5520 o          1 X44      -0.585100
     23 O23         -8.2930    -1.9380    -0.9870 o          1 X44      -0.545000
     24 O24         -8.3470     0.5470    -0.7110 o          1 X44      -0.545000
     25 O25          7.7000    -1.4180    -1.5170 o          1 X44      -0.544500
     26 O26          7.0140    -2.6760     0.5360 o          1 X44      -0.544500
     27 S27          0.6620    -0.1840    -0.1460 ss         1 X44      -0.061400
     28 S28         -7.8610    -0.7500    -0.2630 sy         1 X44       1.133600
     29 S29          7.2660    -1.4050    -0.1290 sy         1 X44       1.127600
     30 HN02        -1.5630    -1.6470    -0.5520 hn         1 X44       0.512000
     31 HN03        -1.1830     3.8910     0.8290 hn         1 X44       0.520500
     32 HN0A         0.5520     4.0300     0.8420 hn         1 X44       0.520500
     33 HN04        -9.1660    -0.5420     1.5370 hn         1 X44       0.472500
     34 HN0B        -8.0280    -1.7380     1.7500 hn         1 X44       0.472500
     35 HN05         8.2590    -0.5280     1.6880 hn         1 X44       0.475500
     36 HN0C         9.3100    -0.6760     0.4010 hn         1 X44       0.475500
     37 H12         -3.4580    -2.7160    -0.9410 ha         1 X44       0.137000
     38 H13         -5.8950    -2.7760    -0.9360 ha         1 X44       0.139000
     39 H15         -5.9740     1.2950     0.4420 ha         1 X44       0.139000
     40 H16         -3.5430     1.3580     0.4280 ha         1 X44       0.137000
     41 H17          4.4840     2.4360    -1.1950 ha         1 X44       0.130500
     42 H18          6.4950     1.0480    -1.4030 ha         1 X44       0.138500
     43 H20          4.8740    -1.7140     1.4690 ha         1 X44       0.138500
     44 H21          2.8640    -0.3310     1.6600 ha         1 X44       0.130500
@<TRIPOS>BOND
     1     1     7 1   
     2     1     8 2   
     3     2     8 1   
     4     2     9 1   
     5     2    30 1   
     6     3     7 1   
     7     3    31 1   
     8     3    32 1   
     9     4    28 1   
    10     4    33 1   
    11     4    34 1   
    12     5    29 1   
    13     5    35 1   
    14     5    36 1   
    15     6     7 2   
    16     6    10 1   
    17     6    27 1   
    18     8    27 1   
    19     9    12 ar  
    20     9    16 ar  
    21    10    11 1   
    22    10    22 2   
    23    11    17 ar  
    24    11    21 ar  
    25    12    13 ar  
    26    12    37 1   
    27    13    14 ar  
    28    13    38 1   
    29    14    15 ar  
    30    14    28 1   
    31    15    16 ar  
    32    15    39 1   
    33    16    40 1   
    34    17    18 ar  
    35    17    41 1   
    36    18    19 ar  
    37    18    42 1   
    38    19    20 ar  
    39    19    29 1   
    40    20    21 ar  
    41    20    43 1   
    42    21    44 1   
    43    23    28 2   
    44    24    28 2   
    45    25    29 2   
    46    26    29 2   
@<TRIPOS>SUBSTRUCTURE
     1 X44         1 TEMP              0 ****  ****    0 ROOT
