@<TRIPOS>MOLECULE
X44
   44    46     1     0     0
SMALL
No Charge or Current Charge


@<TRIPOS>ATOM
      1 N01         -1.2680     1.5100    -0.0020 nc         1 X44      -0.795000
      2 N02         -1.9890    -0.6580    -0.3220 nu         1 X44      -0.916900
      3 N03         -0.3270     3.4690     0.2400 nv         1 X44      -1.043900
      4 N04         -8.2690    -1.6370     1.3180 n8         1 X44      -1.002100
      5 N05          8.3810    -0.6470     1.2010 n8         1 X44      -1.006100
      6 C06          1.0590     1.5020     0.0910 cd         1 X44      -0.472600
      7 C07         -0.1160     2.1780     0.1270 cc         1 X44       0.697900
      8 C08         -0.9890     0.2350    -0.1120 cd         1 X44       0.764300
      9 C09         -3.3800    -0.6150    -0.2240 ca         1 X44       0.356000
     10 C10          2.3910     2.1400     0.0980 c          1 X44       0.640300
     11 C11          3.6110     1.2510     0.1080 ca         1 X44      -0.095600
     12 C12         -4.1230    -1.5880    -0.9100 ca         1 X44      -0.173500
     13 C13         -5.5260    -1.6060    -0.8370 ca         1 X44       0.022000
     14 C14         -6.1990    -0.6450    -0.0590 ca         1 X44      -0.305500
     15 C15         -5.4600     0.3230     0.6470 ca         1 X44       0.022000
     16 C16         -4.0580     0.3320     0.5650 ca         1 X44      -0.173500
     17 C17          4.6750     1.5120    -0.7810 ca         1 X44      -0.099000
     18 C18          5.8260     0.7050    -0.7770 ca         1 X44      -0.017500
     19 C19          5.9320    -0.3710     0.1280 ca         1 X44      -0.256500
     20 C20          4.8820    -0.6240     1.0340 ca         1 X44      -0.017500
     21 C21          3.7330     0.1850     1.0260 ca         1 X44      -0.099000
     22 O22          2.5180     3.3590     0.0830 o          1 X44      -0.585100
     23 O23         -8.5690    -1.3920    -1.0820 o          1 X44      -0.545000
     24 O24         -8.5000     0.6340     0.4810 o          1 X44      -0.545000
     25 O25          8.1270    -1.2950    -1.1270 o          1 X44      -0.544500
     26 O26          7.1360    -2.6900     0.7750 o          1 X44      -0.544500
     27 S27          0.7180    -0.2130    -0.1050 ss         1 X44      -0.061400
     28 S28         -7.9890    -0.6620     0.0420 sy         1 X44       1.133600
     29 S29          7.4030    -1.4030     0.1370 sy         1 X44       1.127600
     30 HN02        -1.6210    -1.5390    -0.6660 hn         1 X44       0.512000
     31 HN03        -1.2210     3.7700    -0.1220 hn         1 X44       0.520500
     32 HN0A         0.4750     4.0530     0.0290 hn         1 X44       0.520500
     33 HN04        -8.8820    -1.0420     1.8700 hn         1 X44       0.472500
     34 HN0B        -8.9270    -2.2930     0.9040 hn         1 X44       0.472500
     35 HN05         8.6140    -1.4220     1.8170 hn         1 X44       0.475500
     36 HN0C         9.2250    -0.5590     0.6410 hn         1 X44       0.475500
     37 H12         -3.6150    -2.3340    -1.5140 ha         1 X44       0.137000
     38 H13         -6.0820    -2.3680    -1.3820 ha         1 X44       0.139000
     39 H15         -5.9650     1.0650     1.2650 ha         1 X44       0.139000
     40 H16         -3.5070     1.0720     1.1340 ha         1 X44       0.137000
     41 H17          4.6060     2.3400    -1.4830 ha         1 X44       0.130500
     42 H18          6.6330     0.9210    -1.4760 ha         1 X44       0.138500
     43 H20          4.9540    -1.4410     1.7500 ha         1 X44       0.138500
     44 H21          2.9400    -0.0110     1.7450 ha         1 X44       0.130500
@<TRIPOS>BOND
     1     1     7 1   
     2     1     8 2   
     3     2     8 1   
     4     2     9 1   
     5     2    30 1   
     6     3     7 1   
     7     3    31 1   
     8     3    32 1   
     9     4    28 1   
    10     4    33 1   
    11     4    34 1   
    12     5    29 1   
    13     5    35 1   
    14     5    36 1   
    15     6     7 2   
    16     6    10 1   
    17     6    27 1   
    18     8    27 1   
    19     9    12 ar  
    20     9    16 ar  
    21    10    11 1   
    22    10    22 2   
    23    11    17 ar  
    24    11    21 ar  
    25    12    13 ar  
    26    12    37 1   
    27    13    14 ar  
    28    13    38 1   
    29    14    15 ar  
    30    14    28 1   
    31    15    16 ar  
    32    15    39 1   
    33    16    40 1   
    34    17    18 ar  
    35    17    41 1   
    36    18    19 ar  
    37    18    42 1   
    38    19    20 ar  
    39    19    29 1   
    40    20    21 ar  
    41    20    43 1   
    42    21    44 1   
    43    23    28 2   
    44    24    28 2   
    45    25    29 2   
    46    26    29 2   
@<TRIPOS>SUBSTRUCTURE
     1 X44         1 TEMP              0 ****  ****    0 ROOT
