@<TRIPOS>MOLECULE
X45
   51    54     1     0     0
SMALL
No Charge or Current Charge


@<TRIPOS>ATOM
      1 C1           2.1300     4.2430    -0.2710 c3         1 X45      -0.032800
      2 N1           1.1560    -2.2540    -1.5780 n          1 X45      -0.383300
      3 O1           4.6920     3.6280     0.8110 os         1 X45      -0.341100
      4 C2           2.5370     2.8260     0.1220 ca         1 X45      -0.109300
      5 N2           1.3740    -2.0150     0.6640 n2         1 X45      -0.691900
      6 O2           0.4840    -0.1730    -2.3640 o          1 X45      -0.502000
      7 C3           1.6260     1.7650    -0.0490 ca         1 X45      -0.050000
      8 N3           1.8010    -4.0790    -0.2850 nv         1 X45      -1.027200
      9 C4           1.9640     0.4410     0.3060 ca         1 X45      -0.114300
     10 N4          -5.4550    -0.7790    -2.1060 nb         1 X45      -0.664000
     11 C5           3.2520     0.1990     0.8340 ca         1 X45      -0.050000
     12 C6           4.1680     1.2500     1.0070 ca         1 X45      -0.206000
     13 C7           3.8170     2.5700     0.6540 ca         1 X45       0.146100
     14 C8           6.0170     3.4610     1.3460 c3         1 X45       0.147900
     15 C9           0.9290    -0.6880     0.0940 c5         1 X45       0.170800
     16 C10          0.8070    -0.9280    -1.4530 c          1 X45       0.550000
     17 C11          1.4580    -2.7780    -0.3460 c2         1 X45       0.666800
     18 C13         -0.4300    -0.3110     0.7280 ca         1 X45      -0.063300
     19 C14         -0.4600     0.3040     1.9980 ca         1 X45      -0.067000
     20 C15         -1.6780     0.6510     2.6020 ca         1 X45      -0.119000
     21 C16         -2.8900     0.3780     1.9510 ca         1 X45      -0.093000
     22 C17         -2.9070    -0.2550     0.6860 cp         1 X45      -0.041000
     23 C18         -1.6640    -0.5970     0.0950 ca         1 X45      -0.090000
     24 C19         -4.2010    -0.5570    -0.0080 cp         1 X45      -0.083000
     25 C20         -5.3710    -0.8950     0.7160 ca         1 X45      -0.068000
     26 C21         -6.5560    -1.1670     0.0140 ca         1 X45      -0.166000
     27 C22         -6.5550    -1.0990    -1.3880 ca         1 X45       0.332900
     28 C23         -4.3120    -0.5170    -1.4250 ca         1 X45       0.345900
     29 H1           2.1750     4.9180     0.5930 hc         1 X45       0.042367
     30 H1A          2.7970     4.6430    -1.0440 hc         1 X45       0.042367
     31 H1B          1.1080     4.2820    -0.6660 hc         1 X45       0.042367
     32 H3           0.6410     1.9730    -0.4620 ha         1 X45       0.125000
     33 HN3          1.7820    -4.4260     0.6660 hn         1 X45       0.486500
     34 HN3A         1.3130    -4.6670    -0.9490 hn         1 X45       0.486500
     35 H5           3.5600    -0.8050     1.1160 ha         1 X45       0.125000
     36 H6           5.1460     1.0180     1.4180 ha         1 X45       0.116000
     37 H8           5.9780     3.0560     2.3660 h1         1 X45       0.039367
     38 H8A          6.6080     2.7820     0.7190 h1         1 X45       0.039367
     39 H8B          6.5360     4.4270     1.3840 h1         1 X45       0.039367
     40 H12          2.1590    -3.5020    -2.9700 h1         1 X45       0.050367
     41 H12A         0.3740    -3.6390    -2.9780 h1         1 X45       0.050367
     42 H12B         1.1710    -2.2190    -3.7090 h1         1 X45       0.050367
     43 H14          0.4680     0.5130     2.5250 ha         1 X45       0.131000
     44 H15         -1.6820     1.1320     3.5770 ha         1 X45       0.115000
     45 H16         -3.8210     0.6680     2.4310 ha         1 X45       0.113000
     46 H18         -1.6740    -1.1120    -0.8610 ha         1 X45       0.125000
     47 H20         -5.3580    -0.9580     1.8020 ha         1 X45       0.119000
     48 H21         -7.4660    -1.4320     0.5440 ha         1 X45       0.122000
     49 H22         -7.4620    -1.3070    -1.9550 h4         1 X45       0.018100
     50 H23         -3.4520    -0.2520    -2.0380 h4         1 X45       0.027100
     51 C12          1.2180    -2.9440    -2.8860 c3         1 X45       0.095300
@<TRIPOS>BOND
     1     1     4 1   
     2     1    29 1   
     3     1    30 1   
     4     1    31 1   
     5     2    16 1   
     6     2    17 1   
     7     2    51 1   
     8     3    13 1   
     9     3    14 1   
    10     4     7 ar  
    11     4    13 ar  
    12     5    15 1   
    13     5    17 2   
    14     6    16 2   
    15     7     9 ar  
    16     7    32 1   
    17     8    17 1   
    18     8    33 1   
    19     8    34 1   
    20     9    11 ar  
    21     9    15 1   
    22    10    27 ar  
    23    10    28 ar  
    24    11    12 ar  
    25    11    35 1   
    26    12    13 ar  
    27    12    36 1   
    28    14    37 1   
    29    14    38 1   
    30    14    39 1   
    31    15    16 1   
    32    15    18 1   
    33    18    19 ar  
    34    18    23 ar  
    35    19    20 ar  
    36    19    43 1   
    37    20    21 ar  
    38    20    44 1   
    39    21    22 ar  
    40    21    45 1   
    41    22    23 ar  
    42    22    24 1   
    43    23    46 1   
    44    24    25 ar  
    45    24    28 ar  
    46    25    26 ar  
    47    25    47 1   
    48    26    27 ar  
    49    26    48 1   
    50    27    49 1   
    51    28    50 1   
    52    40    51 1   
    53    41    51 1   
    54    42    51 1   
@<TRIPOS>SUBSTRUCTURE
     1 X45         1 TEMP              0 ****  ****    0 ROOT
