@<TRIPOS>MOLECULE
X45
   51    54     1     0     0
SMALL
abcg2


@<TRIPOS>ATOM
      1 C1           1.7150     4.1280    -0.2330 c3         1 X45      -0.032800
      2 N1           1.2820    -2.4610    -1.3890 n          1 X45      -0.383300
      3 O1           4.3280     3.6920     0.5110 os         1 X45      -0.341100
      4 C2           2.2340     2.7590     0.0920 ca         1 X45      -0.109300
      5 N2           1.4730    -2.0260     0.8180 n2         1 X45      -0.691900
      6 O2           0.5000    -0.4690    -2.2170 o          1 X45      -0.502000
      7 C3           1.4110     1.6470     0.0320 ca         1 X45      -0.050000
      8 N3           2.1560    -4.1230     0.0340 nv         1 X45      -1.027200
      9 C4           1.8690     0.3630     0.3320 ca         1 X45      -0.114300
     10 N4          -5.2200     0.3790    -2.0660 nb         1 X45      -0.664000
     11 C5           3.1920     0.2080     0.7020 ca         1 X45      -0.050000
     12 C6           4.0460     1.3050     0.7730 ca         1 X45      -0.206000
     13 C7           3.5750     2.5750     0.4680 ca         1 X45       0.146100
     14 C8           5.6920     3.5770     0.8590 c3         1 X45       0.147900
     15 C9           0.9360    -0.8310     0.1970 c5         1 X45       0.170800
     16 C10          0.8470    -1.1750    -1.2980 c          1 X45       0.550000
     17 C11          1.6350    -2.8920    -0.1130 c2         1 X45       0.666800
     18 C13         -0.4210    -0.5290     0.8190 ca         1 X45      -0.063300
     19 C14         -0.4550    -0.2980     2.1940 ca         1 X45      -0.067000
     20 C15         -1.6570    -0.0490     2.8330 ca         1 X45      -0.119000
     21 C16         -2.8440    -0.0250     2.1120 ca         1 X45      -0.093000
     22 C17         -2.8310    -0.2540     0.7410 cp         1 X45      -0.041000
     23 C18         -1.6100    -0.5060     0.1060 ca         1 X45      -0.090000
     24 C19         -4.0820    -0.2320    -0.0380 cp         1 X45      -0.083000
     25 C20         -5.2690    -0.7630     0.4620 ca         1 X45      -0.068000
     26 C21         -6.4150    -0.7150    -0.3150 ca         1 X45      -0.166000
     27 C22         -6.3400    -0.1380    -1.5730 ca         1 X45       0.332900
     28 C23         -4.1300     0.3320    -1.3140 ca         1 X45       0.345900
     29 H1           1.8160     4.8110     0.6120 hc         1 X45       0.042367
     30 H1A          2.2550     4.5750    -1.0690 hc         1 X45       0.042367
     31 H1B          0.6610     4.0850    -0.5020 hc         1 X45       0.042367
     32 H3           0.3740     1.7960    -0.2470 ha         1 X45       0.125000
     33 HN3          2.2550    -4.4520     0.9800 hn         1 X45       0.486500
     34 HN3A         1.9260    -4.8410    -0.6340 hn         1 X45       0.486500
     35 H5           3.5760    -0.7730     0.9490 ha         1 X45       0.125000
     36 H6           5.0730     1.1420     1.0700 ha         1 X45       0.116000
     37 H8           5.8260     3.1900     1.8720 h1         1 X45       0.039367
     38 H8A          6.2380     2.9340     0.1630 h1         1 X45       0.039367
     39 H8B          6.1100     4.5800     0.8100 h1         1 X45       0.039367
     40 H12          2.4700    -3.4980    -2.7710 h1         1 X45       0.050367
     41 H12A         0.8090    -4.1090    -2.5970 h1         1 X45       0.050367
     42 H12B         1.1110    -2.5900    -3.4430 h1         1 X45       0.050367
     43 H14          0.4630    -0.3150     2.7670 ha         1 X45       0.131000
     44 H15         -1.6720     0.1330     3.9000 ha         1 X45       0.115000
     45 H16         -3.7750     0.1920     2.6200 ha         1 X45       0.113000
     46 H18         -1.6150    -0.6990    -0.9580 ha         1 X45       0.125000
     47 H20         -5.2950    -1.2260     1.4400 ha         1 X45       0.119000
     48 H21         -7.3490    -1.1240     0.0440 ha         1 X45       0.122000
     49 H22         -7.2180    -0.0880    -2.2070 h4         1 X45       0.018100
     50 H23         -3.2380     0.7830    -1.7380 h4         1 X45       0.027100
     51 C12          1.4310    -3.2130    -2.6120 c3         1 X45       0.095300
@<TRIPOS>BOND
     1     1     4 1   
     2     1    29 1   
     3     1    30 1   
     4     1    31 1   
     5     2    16 1   
     6     2    17 1   
     7     2    51 1   
     8     3    13 1   
     9     3    14 1   
    10     4     7 ar  
    11     4    13 ar  
    12     5    15 1   
    13     5    17 2   
    14     6    16 2   
    15     7     9 ar  
    16     7    32 1   
    17     8    17 1   
    18     8    33 1   
    19     8    34 1   
    20     9    11 ar  
    21     9    15 1   
    22    10    27 ar  
    23    10    28 ar  
    24    11    12 ar  
    25    11    35 1   
    26    12    13 ar  
    27    12    36 1   
    28    14    37 1   
    29    14    38 1   
    30    14    39 1   
    31    15    16 1   
    32    15    18 1   
    33    18    19 ar  
    34    18    23 ar  
    35    19    20 ar  
    36    19    43 1   
    37    20    21 ar  
    38    20    44 1   
    39    21    22 ar  
    40    21    45 1   
    41    22    23 ar  
    42    22    24 1   
    43    23    46 1   
    44    24    25 ar  
    45    24    28 ar  
    46    25    26 ar  
    47    25    47 1   
    48    26    27 ar  
    49    26    48 1   
    50    27    49 1   
    51    28    50 1   
    52    40    51 1   
    53    41    51 1   
    54    42    51 1   
@<TRIPOS>SUBSTRUCTURE
     1 X45         1 TEMP              0 ****  ****    0 ROOT
