@<TRIPOS>MOLECULE
X46
   38    40     1     0     0
SMALL
abcg2


@<TRIPOS>ATOM
      1 C1          -4.8470     1.5270    -0.5990 ca         1 X46      -0.187000
      2 N1           1.9180    -1.2680    -0.1590 nc         1 X46      -0.805000
      3 S1           0.1550     0.6280    -0.1570 ss         1 X46      -0.079400
      4 C2          -4.9200     0.4680     0.3040 ca         1 X46       0.133100
      5 N2           0.6800    -3.1980    -0.4440 nv         1 X46      -1.050900
      6 C3          -3.9050    -0.4900     0.3250 ca         1 X46      -0.102000
      7 N3           2.7840     0.8970     0.1380 nu         1 X46      -0.916900
      8 O3          -2.0890    -2.6210    -0.5060 o          1 X46      -0.592100
      9 C4          -2.7390     0.6850    -1.4270 ca         1 X46      -0.126000
     10 C5          -3.7610     1.6190    -1.4600 ca         1 X46      -0.081000
     11 O6          -5.9220     0.2870     1.1830 os         1 X46      -0.340100
     12 C7          -6.9710     1.2350     1.2170 c3         1 X46       0.148900
     13 C10         -2.8130    -0.3740    -0.5210 ca         1 X46      -0.113600
     14 C11         -1.7560    -1.4320    -0.4770 c          1 X46       0.646300
     15 C12         -0.4000    -1.0250    -0.3780 cd         1 X46      -0.467600
     16 C13          0.7170    -1.8730    -0.3330 cc         1 X46       0.694900
     17 C14          1.7820     0.0230    -0.0470 cd         1 X46       0.769300
     18 C15          4.1610     0.6700     0.2390 ca         1 X46       0.296000
     19 C16          4.9540     1.7900     0.5070 ca         1 X46      -0.144500
     20 C17          6.3270     1.6680     0.6170 ca         1 X46      -0.083500
     21 C18          6.9380     0.4290     0.4630 ca         1 X46      -0.132000
     22 C19          6.1490    -0.6800     0.1970 ca         1 X46      -0.083500
     23 C20          4.7690    -0.5760     0.0830 ca         1 X46      -0.144500
     24 H1          -5.6200     2.2820    -0.6500 ha         1 X46       0.116000
     25 HN2          1.5310    -3.7310    -0.3980 hn         1 X46       0.517500
     26 HN2A        -0.2010    -3.6700    -0.5560 hn         1 X46       0.517500
     27 H3          -3.9710    -1.3150     1.0240 ha         1 X46       0.139000
     28 HN3          2.5140     1.8660     0.2270 hn         1 X46       0.507000
     29 H4          -1.9130     0.7640    -2.1220 ha         1 X46       0.124000
     30 H5          -3.7210     2.4340    -2.1700 ha         1 X46       0.112000
     31 H7          -6.6070     2.2380     1.4540 h1         1 X46       0.040367
     32 H7A         -7.5190     1.2720     0.2720 h1         1 X46       0.040367
     33 H7B         -7.6520     0.9140     2.0020 h1         1 X46       0.040367
     34 H16          4.4890     2.7620     0.6300 ha         1 X46       0.130000
     35 H17          6.9210     2.5480     0.8250 ha         1 X46       0.114500
     36 H18          8.0120     0.3320     0.5480 ha         1 X46       0.117000
     37 H19          6.6080    -1.6530     0.0730 ha         1 X46       0.114500
     38 H20          4.1790    -1.4540    -0.1230 ha         1 X46       0.130000
@<TRIPOS>BOND
     1     1     4 ar  
     2     1    10 ar  
     3     1    24 1   
     4     2    16 1   
     5     2    17 2   
     6     3    15 1   
     7     3    17 1   
     8     4     6 ar  
     9     4    11 1   
    10     5    16 1   
    11     5    25 1   
    12     5    26 1   
    13     6    13 ar  
    14     6    27 1   
    15     7    17 1   
    16     7    18 1   
    17     7    28 1   
    18     8    14 2   
    19     9    10 ar  
    20     9    13 ar  
    21     9    29 1   
    22    10    30 1   
    23    11    12 1   
    24    12    31 1   
    25    12    32 1   
    26    12    33 1   
    27    13    14 1   
    28    14    15 1   
    29    15    16 2   
    30    18    19 ar  
    31    18    23 ar  
    32    19    20 ar  
    33    19    34 1   
    34    20    21 ar  
    35    20    35 1   
    36    21    22 ar  
    37    21    36 1   
    38    22    23 ar  
    39    22    37 1   
    40    23    38 1   
@<TRIPOS>SUBSTRUCTURE
     1 X46         1 TEMP              0 ****  ****    0 ROOT
