@<TRIPOS>MOLECULE
X46
   38    40     1     0     0
SMALL
No Charge or Current Charge


@<TRIPOS>ATOM
      1 C1          -4.9650     1.4790    -0.7170 ca         1 X46      -0.187000
      2 N1           1.9350    -1.2230    -0.0100 nc         1 X46      -0.805000
      3 S1           0.1760     0.7300    -0.1430 ss         1 X46      -0.079400
      4 C2          -5.0470     0.4610     0.2570 ca         1 X46       0.133100
      5 N2           0.7760    -3.0660    -0.1890 nv         1 X46      -1.050900
      6 C3          -4.0010    -0.4680     0.3800 ca         1 X46      -0.102000
      7 N3           2.8990     0.8640     0.2200 nu         1 X46      -0.916900
      8 O3          -2.0390    -2.6070    -0.2240 o          1 X46      -0.592100
      9 C4          -2.8010     0.6200    -1.4330 ca         1 X46      -0.126000
     10 C5          -3.8440     1.5520    -1.5610 ca         1 X46      -0.081000
     11 O6          -6.1270     0.3340     1.1080 os         1 X46      -0.340100
     12 C7          -7.2490     1.2330     1.0640 c3         1 X46       0.148900
     13 C10         -2.8620    -0.3920    -0.4510 ca         1 X46      -0.113600
     14 C11         -1.7620    -1.4160    -0.3060 c          1 X46       0.646300
     15 C12         -0.3640    -0.9420    -0.2530 cd         1 X46      -0.467600
     16 C13          0.7190    -1.7550    -0.1700 cc         1 X46       0.694900
     17 C14          1.8100     0.0810     0.0020 cd         1 X46       0.769300
     18 C15          4.2810     0.6530     0.2190 ca         1 X46       0.296000
     19 C16          5.0970     1.5950     0.8710 ca         1 X46      -0.144500
     20 C17          6.4950     1.4440     0.8890 ca         1 X46      -0.083500
     21 C18          7.0900     0.3490     0.2410 ca         1 X46      -0.132000
     22 C19          6.2870    -0.5890    -0.4270 ca         1 X46      -0.083500
     23 C20          4.8890    -0.4340    -0.4410 ca         1 X46      -0.144500
     24 H1          -5.7570     2.2130    -0.8390 ha         1 X46       0.116000
     25 HN2          1.6050    -3.4440     0.2490 hn         1 X46       0.517500
     26 HN2A        -0.1020    -3.5350     0.0060 hn         1 X46       0.517500
     27 H3          -4.0730    -1.2510     1.1310 ha         1 X46       0.139000
     28 HN3          2.6170     1.8050     0.4750 hn         1 X46       0.507000
     29 H4          -1.9490     0.6780    -2.1080 ha         1 X46       0.124000
     30 H5          -3.7850     2.3300    -2.3200 ha         1 X46       0.112000
     31 H7          -6.9310     2.2650     1.2650 h1         1 X46       0.040367
     32 H7A         -7.7380     1.1990     0.0820 h1         1 X46       0.040367
     33 H7B         -7.9900     0.9530     1.8230 h1         1 X46       0.040367
     34 H16          4.6490     2.4460     1.3760 ha         1 X46       0.130000
     35 H17          7.1160     2.1750     1.4030 ha         1 X46       0.114500
     36 H18          8.1720     0.2310     0.2520 ha         1 X46       0.117000
     37 H19          6.7460    -1.4320    -0.9380 ha         1 X46       0.114500
     38 H20          4.2900    -1.1590    -0.9820 ha         1 X46       0.130000
@<TRIPOS>BOND
     1     1     4 ar  
     2     1    10 ar  
     3     1    24 1   
     4     2    16 1   
     5     2    17 2   
     6     3    15 1   
     7     3    17 1   
     8     4     6 ar  
     9     4    11 1   
    10     5    16 1   
    11     5    25 1   
    12     5    26 1   
    13     6    13 ar  
    14     6    27 1   
    15     7    17 1   
    16     7    18 1   
    17     7    28 1   
    18     8    14 2   
    19     9    10 ar  
    20     9    13 ar  
    21     9    29 1   
    22    10    30 1   
    23    11    12 1   
    24    12    31 1   
    25    12    32 1   
    26    12    33 1   
    27    13    14 1   
    28    14    15 1   
    29    15    16 2   
    30    18    19 ar  
    31    18    23 ar  
    32    19    20 ar  
    33    19    34 1   
    34    20    21 ar  
    35    20    35 1   
    36    21    22 ar  
    37    21    36 1   
    38    22    23 ar  
    39    22    37 1   
    40    23    38 1   
@<TRIPOS>SUBSTRUCTURE
     1 X46         1 TEMP              0 ****  ****    0 ROOT
