@<TRIPOS>MOLECULE
X47
   64    67     1     0     0
SMALL
abcg2


@<TRIPOS>ATOM
      1 C02         16.4780   -28.4830    25.2310 c          1 X47       0.541600
      2 C04         17.5330   -27.6440    23.1930 ca         1 X47      -0.065000
      3 C05         18.8990   -27.7010    23.4460 ca         1 X47      -0.104000
      4 C06         19.7930   -27.8700    22.4050 ca         1 X47      -0.111000
      5 C07         19.3600   -27.9620    21.0800 ca         1 X47      -0.063300
      6 C08         20.3820   -28.1290    19.9620 c3         1 X47      -0.001700
      7 C09         21.1600   -29.4340    20.1780 c3         1 X47      -0.083433
      8 C10         19.7310   -28.1810    18.5810 c3         1 X47      -0.083433
      9 C11         21.3590   -26.9450    19.9930 c3         1 X47      -0.083433
     10 C12         17.9890   -27.8870    20.8460 ca         1 X47      -0.111000
     11 C13         17.0820   -27.7320    21.8870 ca         1 X47      -0.104000
     12 C14         16.1090   -26.1850    24.6470 c3         1 X47       0.097000
     13 C15         14.6170   -26.1750    24.8350 ca         1 X47      -0.130300
     14 C16         14.0400   -25.4440    25.8610 ca         1 X47      -0.050000
     15 C17         12.6590   -25.4060    25.9730 ca         1 X47      -0.167000
     16 C18         11.9030   -26.1100    25.0490 ca         1 X47       0.342900
     17 C20         13.7650   -26.8450    23.9640 ca         1 X47       0.379900
     18 C21         16.4840   -25.1580    23.5640 c          1 X47       0.591100
     19 C23         18.1650   -23.5010    22.8950 c5         1 X47       0.112700
     20 C24         19.0910   -22.5470    23.6440 c5         1 X47      -0.099400
     21 C25         20.3870   -23.3440    23.8120 c5         1 X47      -0.081900
     22 C26         20.4880   -24.2100    22.5390 c5         1 X47      -0.081900
     23 C27         19.0990   -24.1600    21.8700 c5         1 X47      -0.099400
     24 C29         16.9290   -29.8600    24.9420 cc         1 X47       0.177500
     25 C30         17.2530   -30.5090    23.7730 cd         1 X47      -0.168000
     26 C32         17.3410   -31.8850    25.4710 cd         1 X47       0.381400
     27 N03         16.6190   -27.5110    24.2750 n          1 X47      -0.244400
     28 N19         12.4430   -26.8210    24.0640 nb         1 X47      -0.673000
     29 N22         17.5990   -24.4690    23.8220 ns         1 X47      -0.496900
     30 N31         17.5060   -31.7880    24.1320 na         1 X47      -0.299500
     31 N33         16.9890   -30.7440    25.9880 nc         1 X47      -0.620000
     32 O01         15.9560   -28.2270    26.3020 o          1 X47      -0.552100
     33 O28         15.7890   -24.9910    22.5760 o          1 X47      -0.587100
     34 H051        19.2610   -27.6280    24.4640 ha         1 X47       0.130000
     35 H061        20.8490   -27.9210    22.6380 ha         1 X47       0.118500
     36 H093        21.6890   -29.4430    21.1330 hc         1 X47       0.036478
     37 H091        20.4940   -30.2990    20.1590 hc         1 X47       0.036478
     38 H092        21.9060   -29.5650    19.3910 hc         1 X47       0.036478
     39 H101        19.0390   -29.0190    18.4830 hc         1 X47       0.036478
     40 H102        19.1860   -27.2630    18.3490 hc         1 X47       0.036478
     41 H103        20.5010   -28.3040    17.8180 hc         1 X47       0.036478
     42 H112        21.9230   -26.9050    20.9260 hc         1 X47       0.036478
     43 H113        22.0780   -27.0330    19.1760 hc         1 X47       0.036478
     44 H111        20.8340   -25.9950    19.8830 hc         1 X47       0.036478
     45 H121        17.6020   -27.9540    19.8380 ha         1 X47       0.118500
     46 H131        16.0210   -27.6960    21.6750 ha         1 X47       0.130000
     47 H141        16.5760   -25.8790    25.5890 h1         1 X47       0.064700
     48 H161        14.6620   -24.9130    26.5720 ha         1 X47       0.115000
     49 H171        12.1750   -24.8500    26.7650 ha         1 X47       0.121000
     50 H181        10.8210   -26.1050    25.1070 h4         1 X47       0.015100
     51 H201        14.1720   -27.4430    23.1570 h4         1 X47       0.022100
     52 H231        17.3370   -22.9810    22.4160 h1         1 X47       0.083700
     53 H242        18.6670   -22.1910    24.5840 hc         1 X47       0.055950
     54 H251        20.3380   -23.9730    24.7050 hc         1 X47       0.041450
     55 H252        21.2520   -22.6940    23.9450 hc         1 X47       0.041450
     56 H261        20.7670   -25.2350    22.7810 hc         1 X47       0.041450
     57 H262        21.2540   -23.8270    21.8640 hc         1 X47       0.041450
     58 H271        19.1260   -23.5360    20.9730 hc         1 X47       0.055950
     59 H272        18.7430   -25.1460    21.5710 hc         1 X47       0.055950
     60 H301        17.3210   -30.1910    22.7480 h4         1 X47       0.169000
     61 H321        17.4970   -32.8090    26.0060 h5         1 X47       0.060100
     62 H221        18.1160   -24.6900    24.6590 hn         1 X47       0.315500
     63 H1          17.7730   -32.5330    23.5070 hn         1 X47       0.355000
     64 H241        19.2670   -21.6740    23.0120 hc         1 X47       0.055950
@<TRIPOS>BOND
     1     1    24 1   
     2     1    27 1   
     3     1    32 2   
     4     2     3 ar  
     5     2    11 ar  
     6     2    27 1   
     7     3     4 ar  
     8     3    34 1   
     9     4     5 ar  
    10     4    35 1   
    11     5     6 1   
    12     5    10 ar  
    13     6     7 1   
    14     6     8 1   
    15     6     9 1   
    16     7    36 1   
    17     7    37 1   
    18     7    38 1   
    19     8    39 1   
    20     8    40 1   
    21     8    41 1   
    22     9    42 1   
    23     9    43 1   
    24     9    44 1   
    25    10    11 ar  
    26    10    45 1   
    27    11    46 1   
    28    12    13 1   
    29    12    18 1   
    30    12    27 1   
    31    12    47 1   
    32    13    14 ar  
    33    13    17 ar  
    34    14    15 ar  
    35    14    48 1   
    36    15    16 ar  
    37    15    49 1   
    38    16    28 ar  
    39    16    50 1   
    40    17    28 ar  
    41    17    51 1   
    42    18    29 1   
    43    18    33 2   
    44    19    20 1   
    45    19    23 1   
    46    19    29 1   
    47    19    52 1   
    48    20    21 1   
    49    20    53 1   
    50    20    64 1   
    51    21    22 1   
    52    21    54 1   
    53    21    55 1   
    54    22    23 1   
    55    22    56 1   
    56    22    57 1   
    57    23    58 1   
    58    23    59 1   
    59    24    25 2   
    60    24    31 1   
    61    25    30 1   
    62    25    60 1   
    63    26    30 1   
    64    26    31 2   
    65    26    61 1   
    66    29    62 1   
    67    30    63 1   
@<TRIPOS>SUBSTRUCTURE
     1 X47         1 TEMP              0 ****  ****    0 ROOT
