@<TRIPOS>MOLECULE
X47
   64    67     1     0     0
SMALL
No Charge or Current Charge


@<TRIPOS>ATOM
      1 C02         16.7850   -28.1650    25.7760 c          1 X47       0.541600
      2 C04         17.7860   -27.3350    23.5940 ca         1 X47      -0.065000
      3 C05         19.0690   -27.8830    23.7830 ca         1 X47      -0.104000
      4 C06         19.9180   -28.1240    22.6910 ca         1 X47      -0.111000
      5 C07         19.5010   -27.8600    21.3680 ca         1 X47      -0.063300
      6 C08         20.4780   -28.1200    20.1900 c3         1 X47      -0.001700
      7 C09         20.8230   -29.6320    20.1410 c3         1 X47      -0.083433
      8 C10         19.8890   -27.7120    18.8100 c3         1 X47      -0.083433
      9 C11         21.7810   -27.3010    20.4080 c3         1 X47      -0.083433
     10 C12         18.1820   -27.3840    21.1790 ca         1 X47      -0.111000
     11 C13         17.3320   -27.1490    22.2740 ca         1 X47      -0.104000
     12 C14         16.0010   -25.9910    24.8200 c3         1 X47       0.097000
     13 C15         14.5110   -26.3070    24.6210 ca         1 X47      -0.130300
     14 C16         13.5350   -25.5530    25.3020 ca         1 X47      -0.050000
     15 C17         12.1820   -25.8720    25.1060 ca         1 X47      -0.167000
     16 C18         11.8440   -26.9280    24.2460 ca         1 X47       0.342900
     17 C20         14.0740   -27.3550    23.7820 ca         1 X47       0.379900
     18 C21         16.4500   -24.7000    24.0570 c          1 X47       0.591100
     19 C23         18.3240   -23.2810    23.3070 c5         1 X47       0.112700
     20 C24         19.8430   -23.2570    23.6620 c5         1 X47      -0.099400
     21 C25         20.4600   -24.1940    22.5910 c5         1 X47      -0.081900
     22 C26         19.7610   -23.6510    21.3230 c5         1 X47      -0.081900
     23 C27         18.2710   -23.5960    21.7680 c5         1 X47      -0.099400
     24 C29         17.0800   -29.6240    25.4700 cc         1 X47       0.177500
     25 C30         17.1770   -30.1810    24.2140 cd         1 X47      -0.168000
     26 C32         17.4060   -31.7500    25.7890 cd         1 X47       0.381400
     27 N03         16.8820   -27.2090    24.7150 n          1 X47      -0.244400
     28 N19         12.7690   -27.6650    23.5920 nb         1 X47      -0.673000
     29 N22         17.8170   -24.4800    23.9930 ns         1 X47      -0.496900
     30 N31         17.4020   -31.5320    24.4270 na         1 X47      -0.299500
     31 N33         17.1980   -30.6100    26.4290 nc         1 X47      -0.620000
     32 O01         16.4370   -27.8060    26.9000 o          1 X47      -0.552100
     33 O28         15.6480   -23.9190    23.5560 o          1 X47      -0.587100
     34 H051        19.4280   -28.1040    24.7860 ha         1 X47       0.130000
     35 H061        20.9090   -28.5230    22.8870 ha         1 X47       0.118500
     36 H093        21.3210   -29.9620    21.0600 hc         1 X47       0.036478
     37 H091        19.9130   -30.2310    20.0170 hc         1 X47       0.036478
     38 H092        21.4930   -29.8550    19.3020 hc         1 X47       0.036478
     39 H101        18.9940   -28.2990    18.5720 hc         1 X47       0.036478
     40 H102        19.6250   -26.6480    18.7930 hc         1 X47       0.036478
     41 H103        20.6170   -27.8860    18.0080 hc         1 X47       0.036478
     42 H112        22.3050   -27.6040    21.3210 hc         1 X47       0.036478
     43 H113        22.4760   -27.4400    19.5700 hc         1 X47       0.036478
     44 H111        21.5570   -26.2310    20.4860 hc         1 X47       0.036478
     45 H121        17.7850   -27.1900    20.1880 ha         1 X47       0.118500
     46 H131        16.3240   -26.7960    22.0800 ha         1 X47       0.130000
     47 H141        16.0960   -25.6570    25.8600 h1         1 X47       0.064700
     48 H161        13.8170   -24.7380    25.9650 ha         1 X47       0.115000
     49 H171        11.4010   -25.3110    25.6110 ha         1 X47       0.121000
     50 H181        10.8010   -27.1950    24.0770 h4         1 X47       0.015100
     51 H201        14.7840   -27.9830    23.2470 h4         1 X47       0.022100
     52 H231        17.8010   -22.3570    23.5940 h1         1 X47       0.083700
     53 H242        20.0580   -23.5810    24.6870 hc         1 X47       0.055950
     54 H251        20.2210   -25.2480    22.7710 hc         1 X47       0.041450
     55 H252        21.5510   -24.1070    22.5360 hc         1 X47       0.041450
     56 H261        19.9090   -24.3000    20.4520 hc         1 X47       0.041450
     57 H262        20.1360   -22.6560    21.0550 hc         1 X47       0.041450
     58 H271        17.7270   -22.8170    21.2220 hc         1 X47       0.055950
     59 H272        17.7610   -24.5370    21.5420 hc         1 X47       0.055950
     60 H301        17.0850   -29.7500    23.2240 h4         1 X47       0.169000
     61 H321        17.5490   -32.7320    26.2240 h5         1 X47       0.060100
     62 H221        18.4160   -25.1970    24.3830 hn         1 X47       0.315500
     63 H1          17.5270   -32.2500    23.7220 hn         1 X47       0.355000
     64 H241        20.2440   -22.2410    23.5650 hc         1 X47       0.055950
@<TRIPOS>BOND
     1     1    24 1   
     2     1    27 1   
     3     1    32 2   
     4     2     3 ar  
     5     2    11 ar  
     6     2    27 1   
     7     3     4 ar  
     8     3    34 1   
     9     4     5 ar  
    10     4    35 1   
    11     5     6 1   
    12     5    10 ar  
    13     6     7 1   
    14     6     8 1   
    15     6     9 1   
    16     7    36 1   
    17     7    37 1   
    18     7    38 1   
    19     8    39 1   
    20     8    40 1   
    21     8    41 1   
    22     9    42 1   
    23     9    43 1   
    24     9    44 1   
    25    10    11 ar  
    26    10    45 1   
    27    11    46 1   
    28    12    13 1   
    29    12    18 1   
    30    12    27 1   
    31    12    47 1   
    32    13    14 ar  
    33    13    17 ar  
    34    14    15 ar  
    35    14    48 1   
    36    15    16 ar  
    37    15    49 1   
    38    16    28 ar  
    39    16    50 1   
    40    17    28 ar  
    41    17    51 1   
    42    18    29 1   
    43    18    33 2   
    44    19    20 1   
    45    19    23 1   
    46    19    29 1   
    47    19    52 1   
    48    20    21 1   
    49    20    53 1   
    50    20    64 1   
    51    21    22 1   
    52    21    54 1   
    53    21    55 1   
    54    22    23 1   
    55    22    56 1   
    56    22    57 1   
    57    23    58 1   
    58    23    59 1   
    59    24    25 2   
    60    24    31 1   
    61    25    30 1   
    62    25    60 1   
    63    26    30 1   
    64    26    31 2   
    65    26    61 1   
    66    29    62 1   
    67    30    63 1   
@<TRIPOS>SUBSTRUCTURE
     1 X47         1 TEMP              0 ****  ****    0 ROOT
