@<TRIPOS>MOLECULE
X4B
   32    33     1     0     0
SMALL
No Charge or Current Charge


@<TRIPOS>ATOM
      1 N01          0.5910     3.7200    -0.1310 nt         1 X4B      -0.590000
      2 N02         -1.2530    -0.1040     0.2850 nu         1 X4B      -0.941200
      3 N03         -5.6330    -0.2520    -1.2260 nb         1 X4B      -0.663000
      4 N04          4.4040     0.2230    -0.0540 no         1 X4B       0.712200
      5 C05          2.1630     1.3170    -0.0030 ca         1 X4B       0.041000
      6 C06          0.7490     1.2720     0.0780 ca         1 X4B      -0.271600
      7 C07          0.1270     0.0080     0.2020 ca         1 X4B       0.442000
      8 C08          0.8960    -1.1590     0.2600 ca         1 X4B      -0.248000
      9 C09          2.2890    -1.1060     0.1790 ca         1 X4B       0.254000
     10 C10          2.9290     0.1360     0.0380 ca         1 X4B      -0.273200
     11 C11         -0.0600     2.5510     0.0300 c          1 X4B       0.635700
     12 C12         -2.0780    -1.1860    -0.2560 c3         1 X4B       0.277100
     13 C13         -3.5400    -0.8130    -0.1250 ca         1 X4B      -0.177300
     14 C14         -4.3200    -0.5800    -1.2750 ca         1 X4B       0.359900
     15 C15         -6.2120    -0.1460    -0.0070 ca         1 X4B       0.351900
     16 C16         -5.5120    -0.3640     1.1910 ca         1 X4B      -0.163000
     17 C17         -4.1510    -0.7050     1.1380 ca         1 X4B      -0.050000
     18 O18         -1.2750     2.5860     0.1340 o          1 X4B      -0.638100
     19 O19          4.9660    -0.4490    -0.9270 o          1 X4B      -0.403000
     20 O20          4.9600     1.1280     0.5790 o          1 X4B      -0.403000
     21 Cl21         3.1870    -2.6190     0.3130 cl         1 X4B      -0.135000
     22 H101         1.5930     3.7460    -0.2250 hn         1 X4B       0.321500
     23 H201         0.0540     4.5730    -0.1620 hn         1 X4B       0.321500
     24 HN02        -1.7000     0.8230     0.2920 hn         1 X4B       0.544000
     25 H05          2.6860     2.2660    -0.1040 ha         1 X4B       0.145000
     26 H08          0.4180    -2.1240     0.3820 ha         1 X4B       0.139000
     27 H112        -1.8300    -1.3580    -1.3130 h1         1 X4B       0.056200
     28 H212        -1.8930    -2.1230     0.2880 h1         1 X4B       0.056200
     29 H14         -3.8820    -0.6580    -2.2700 h4         1 X4B       0.022100
     30 H15         -7.2680     0.1190     0.0080 h4         1 X4B       0.024100
     31 H16         -6.0230    -0.2680     2.1450 ha         1 X4B       0.130000
     32 H17         -3.5850    -0.8800     2.0510 ha         1 X4B       0.124000
@<TRIPOS>BOND
     1     1    11 1   
     2     1    22 1   
     3     1    23 1   
     4     2     7 1   
     5     2    12 1   
     6     2    24 1   
     7     3    14 ar  
     8     3    15 ar  
     9     4    10 1   
    10     4    19 1   
    11     4    20 1   
    12     5     6 ar  
    13     5    10 ar  
    14     5    25 1   
    15     6     7 ar  
    16     6    11 1   
    17     7     8 ar  
    18     8     9 ar  
    19     8    26 1   
    20     9    10 ar  
    21     9    21 1   
    22    11    18 2   
    23    12    13 1   
    24    12    27 1   
    25    12    28 1   
    26    13    14 ar  
    27    13    17 ar  
    28    14    29 1   
    29    15    16 ar  
    30    15    30 1   
    31    16    17 ar  
    32    16    31 1   
    33    17    32 1   
@<TRIPOS>SUBSTRUCTURE
     1 X4B         1 TEMP              0 ****  ****    0 ROOT
