@<TRIPOS>MOLECULE
X4B
   32    33     1     0     0
SMALL
bcc


@<TRIPOS>ATOM
      1 N01          0.6920     3.7200    -0.2260 nt         1 X4B      -0.657000
      2 N02         -1.2740     0.0460     0.0540 nu         1 X4B      -0.747600
      3 N03         -5.5050    -0.2990    -1.2340 nb         1 X4B      -0.663000
      4 N04          4.3140     0.2370     0.0500 no         1 X4B       0.332200
      5 C05          2.1480     1.3080     0.1360 ca         1 X4B       0.023000
      6 C06          0.7710     1.3340     0.1080 ca         1 X4B      -0.271600
      7 C07          0.0610     0.0980     0.0310 ca         1 X4B       0.303600
      8 C08          0.8150    -1.0880    -0.0900 ca         1 X4B      -0.266000
      9 C09          2.1890    -1.0810    -0.0980 ca         1 X4B       0.162400
     10 C10          2.8820     0.1320     0.0290 ca         1 X4B      -0.273200
     11 C11          0.0370     2.6290     0.1910 c          1 X4B       0.702700
     12 C12         -2.0440    -1.1750    -0.0670 c3         1 X4B       0.277100
     13 C13         -3.5080    -0.8530    -0.0280 ca         1 X4B      -0.242600
     14 C14         -4.2160    -0.6110    -1.2000 ca         1 X4B       0.425200
     15 C15         -6.1510    -0.2090    -0.0770 ca         1 X4B       0.417200
     16 C16         -5.5450    -0.4280     1.1510 ca         1 X4B      -0.246300
     17 C17         -4.1990    -0.7560     1.1730 ca         1 X4B      -0.068000
     18 O18         -1.1110     2.6850     0.6280 o          1 X4B      -0.638100
     19 O19          4.9710    -0.6500    -0.4430 o          1 X4B      -0.213000
     20 O20          4.8000     1.2290     0.5530 o          1 X4B      -0.213000
     21 CL21         2.9610    -2.6150    -0.1800 cl         1 X4B      -0.043400
     22 H101         1.5480     3.6780    -0.7500 hn         1 X4B       0.321500
     23 H201         0.2300     4.6140    -0.1840 hn         1 X4B       0.321500
     24 HN02        -1.7530     0.9100     0.2710 hn         1 X4B       0.488800
     25 H05          2.6960     2.2330     0.2450 ha         1 X4B       0.163000
     26 H08          0.3080    -2.0400    -0.1560 ha         1 X4B       0.157000
     27 H112        -1.7970    -1.6800    -1.0050 h1         1 X4B       0.056200
     28 H212        -1.7970    -1.8680     0.7440 h1         1 X4B       0.056200
     29 H14         -3.7100    -0.6830    -2.1580 h4         1 X4B       0.022100
     30 H15         -7.2040     0.0450    -0.1280 h4         1 X4B       0.024100
     31 H16         -6.1180    -0.3470     2.0640 ha         1 X4B       0.148000
     32 H17         -3.6940    -0.9420     2.1130 ha         1 X4B       0.142000
@<TRIPOS>BOND
     1     1    11 1   
     2     1    22 1   
     3     1    23 1   
     4     2     7 1   
     5     2    12 1   
     6     2    24 1   
     7     3    14 ar  
     8     3    15 ar  
     9     4    10 1   
    10     4    19 1   
    11     4    20 1   
    12     5     6 ar  
    13     5    10 ar  
    14     5    25 1   
    15     6     7 ar  
    16     6    11 1   
    17     7     8 ar  
    18     8     9 ar  
    19     8    26 1   
    20     9    10 ar  
    21     9    21 1   
    22    11    18 2   
    23    12    13 1   
    24    12    27 1   
    25    12    28 1   
    26    13    14 ar  
    27    13    17 ar  
    28    14    29 1   
    29    15    16 ar  
    30    15    30 1   
    31    16    17 ar  
    32    16    31 1   
    33    17    32 1   
@<TRIPOS>SUBSTRUCTURE
     1 X4B         1 TEMP              0 ****  ****    0 ROOT
