@<TRIPOS>MOLECULE
X4C
   49    53     1     0     0
SMALL
bcc


@<TRIPOS>ATOM
      1 C25          0.1330     3.8330    -0.2970 ca         1 X4C      -0.128000
      2 C24         -0.2940     3.1210    -1.4110 ca         1 X4C      -0.125000
      3 C26         -0.0930     3.3290     0.9780 ca         1 X4C      -0.125000
      4 C17         -5.4650     0.1800    -0.5290 ca         1 X4C      -0.111000
      5 C15         -4.2130     0.7620    -0.4380 ca         1 X4C      -0.127000
      6 C23         -0.9400     1.9020    -1.2550 ca         1 X4C      -0.126000
      7 C27         -0.7510     2.1180     1.1420 ca         1 X4C      -0.126000
      8 C12         -4.6380    -1.9750     0.1860 ca         1 X4C      -0.067000
      9 C16         -5.6940    -1.1760    -0.2260 ca         1 X4C      -0.097300
     10 C8          -3.3650    -1.4120     0.2820 ca         1 X4C       0.072400
     11 C10         -3.1730    -0.0620    -0.0320 ca         1 X4C      -0.072200
     12 C18         -1.1640     1.4050     0.0230 ca         1 X4C      -0.003200
     13 C9           4.4860    -1.9470     0.0940 cc         1 X4C       0.067400
     14 C7           4.4580    -0.5710     0.1590 cd         1 X4C       0.295500
     15 C1          -1.2900    -1.0210     0.6020 cc         1 X4C       0.425800
     16 C2           2.4210    -1.3710    -0.2290 cd         1 X4C       0.348800
     17 C21          3.6950     2.0270     0.1520 cc         1 X4C      -0.282300
     18 C14          2.7430     1.0950    -0.0590 cd         1 X4C      -0.040300
     19 C22          5.0440     1.6030     0.3680 cc         1 X4C       0.407200
     20 C20         -7.0770    -1.7450    -0.3710 c3         1 X4C      -0.042800
     21 C11          0.1660    -1.1730     0.8610 c3         1 X4C      -0.095700
     22 C13          0.9530    -1.4040    -0.4450 c3         1 X4C      -0.080700
     23 N4          -2.1720    -1.9780     0.6700 nd         1 X4C      -0.563100
     24 N3           3.2290    -2.4030    -0.1420 nc         1 X4C      -0.543300
     25 N19          5.4090     0.3580     0.3680 nd         1 X4C      -0.606000
     26 N5          -1.8330     0.1660     0.1840 na         1 X4C      -0.102400
     27 N6           3.1180    -0.2190    -0.0520 na         1 X4C      -0.198000
     28 H1           0.6430     4.7790    -0.4220 ha         1 X4C       0.139000
     29 H2          -0.1170     3.5090    -2.4050 ha         1 X4C       0.142000
     30 H3           0.2350     3.8810     1.8480 ha         1 X4C       0.142000
     31 H4          -6.3030     0.7930    -0.8400 ha         1 X4C       0.130000
     32 H5          -4.0620     1.8090    -0.6690 ha         1 X4C       0.140000
     33 H6          -1.2650     1.3390    -2.1200 ha         1 X4C       0.151500
     34 H7          -0.9450     1.7280     2.1330 ha         1 X4C       0.151500
     35 H8          -4.7940    -3.0190     0.4320 ha         1 X4C       0.147000
     36 H9           3.4430     3.0770     0.1560 ha         1 X4C       0.153000
     37 H10          1.7010     1.3210    -0.2370 h4         1 X4C       0.170000
     38 H11          5.8120     2.3480     0.5400 h4         1 X4C       0.029100
     39 H12         -7.2990    -1.9830    -1.4140 hc         1 X4C       0.041367
     40 H13         -7.1960    -2.6620     0.2050 hc         1 X4C       0.041367
     41 H14         -7.8370    -1.0380    -0.0370 hc         1 X4C       0.041367
     42 H15          5.5530    -3.5070     1.1050 hc         1 X4C       0.050367
     43 H16          5.8020    -3.4710    -0.6350 hc         1 X4C       0.050367
     44 H17          6.5730    -2.2620     0.3890 hc         1 X4C       0.050367
     45 H18          0.5480    -0.2960     1.3870 hc         1 X4C       0.071700
     46 H19          0.3100    -2.0250     1.5250 hc         1 X4C       0.071700
     47 H20          0.6680    -0.6630    -1.1970 hc         1 X4C       0.072700
     48 H21          0.6890    -2.3780    -0.8560 hc         1 X4C       0.072700
     49 C28          5.6630    -2.8420     0.2460 c3         1 X4C      -0.009900
@<TRIPOS>BOND
     1     1     2 ar  
     2     1     3 ar  
     3     1    28 1   
     4     2     6 ar  
     5     2    29 1   
     6     3     7 ar  
     7     3    30 1   
     8     4     5 ar  
     9     4     9 ar  
    10     4    31 1   
    11     5    11 ar  
    12     5    32 1   
    13     6    12 ar  
    14     6    33 1   
    15     7    12 ar  
    16     7    34 1   
    17     8     9 ar  
    18     8    10 ar  
    19     8    35 1   
    20     9    20 1   
    21    10    11 ar  
    22    10    23 1   
    23    11    26 1   
    24    12    26 1   
    25    13    14 2   
    26    13    24 1   
    27    13    49 1   
    28    14    25 1   
    29    14    27 1   
    30    15    21 1   
    31    15    23 2   
    32    15    26 1   
    33    16    22 1   
    34    16    24 2   
    35    16    27 1   
    36    17    18 2   
    37    17    19 1   
    38    17    36 1   
    39    18    27 1   
    40    18    37 1   
    41    19    25 2   
    42    19    38 1   
    43    20    39 1   
    44    20    40 1   
    45    20    41 1   
    46    21    22 1   
    47    21    45 1   
    48    21    46 1   
    49    22    47 1   
    50    22    48 1   
    51    42    49 1   
    52    43    49 1   
    53    44    49 1   
@<TRIPOS>SUBSTRUCTURE
     1 X4C         1 TEMP              0 ****  ****    0 ROOT
