@<TRIPOS>MOLECULE
X4C
   49    53     1     0     0
SMALL
No Charge or Current Charge


@<TRIPOS>ATOM
      1 C25          0.1000     3.8020    -0.3440 ca         1 X4C      -0.110000
      2 C24         -0.3580     3.0800    -1.4590 ca         1 X4C      -0.107000
      3 C26         -0.1260     3.3100     0.9530 ca         1 X4C      -0.107000
      4 C17         -5.5850     0.2170    -0.4730 ca         1 X4C      -0.093000
      5 C15         -4.2990     0.7820    -0.3520 ca         1 X4C      -0.109000
      6 C23         -1.0410     1.8650    -1.2770 ca         1 X4C      -0.108000
      7 C27         -0.8090     2.0950     1.1350 ca         1 X4C      -0.108000
      8 C12         -4.6940    -1.9940     0.1170 ca         1 X4C      -0.049000
      9 C16         -5.7890    -1.1680    -0.2380 ca         1 X4C      -0.097300
     10 C8          -3.4230    -1.4140     0.2320 ca         1 X4C       0.072400
     11 C10         -3.2520    -0.0760     0.0020 ca         1 X4C      -0.072200
     12 C18         -1.2640     1.3660     0.0200 ca         1 X4C      -0.003200
     13 C9           4.5450    -1.8860     0.1000 cc         1 X4C       0.067400
     14 C7           4.5400    -0.5110     0.1830 cd         1 X4C       0.295500
     15 C1          -1.3080    -1.0470     0.5360 cc         1 X4C       0.425800
     16 C2           2.4810    -1.2810    -0.2600 cd         1 X4C       0.348800
     17 C21          3.8790     2.0240     0.2530 cc         1 X4C      -0.199000
     18 C14          2.8220     1.1640    -0.0190 cd         1 X4C      -0.073000
     19 C22          5.2330     1.5530     0.4760 cc         1 X4C       0.341900
     20 C20         -7.1810    -1.7650    -0.3760 c3         1 X4C      -0.042800
     21 C11          0.1670    -1.2210     0.7870 c3         1 X4C      -0.095700
     22 C13          0.9980    -1.3260    -0.5150 c3         1 X4C      -0.080700
     23 N4          -2.2190    -2.0440     0.5670 nd         1 X4C      -0.563100
     24 N3           3.2670    -2.3580    -0.1710 nc         1 X4C      -0.543300
     25 N19          5.6400     0.2800     0.4590 nd         1 X4C      -0.606000
     26 N5          -1.9300     0.1560     0.1970 na         1 X4C      -0.102400
     27 N6           3.2540    -0.1600    -0.0520 na         1 X4C      -0.147300
     28 H1           0.6290     4.7430    -0.4840 ha         1 X4C       0.121000
     29 H2          -0.1850     3.4620    -2.4630 ha         1 X4C       0.124000
     30 H3           0.2270     3.8700     1.8170 ha         1 X4C       0.124000
     31 H4          -6.4240     0.8520    -0.7490 ha         1 X4C       0.112000
     32 H5          -4.1280     1.8420    -0.5270 ha         1 X4C       0.122000
     33 H6          -1.3950     1.3090    -2.1430 ha         1 X4C       0.133500
     34 H7          -0.9840     1.7200     2.1420 ha         1 X4C       0.133500
     35 H8          -4.8300    -3.0570     0.2970 ha         1 X4C       0.129000
     36 H9           3.7070     3.0930     0.3050 ha         1 X4C       0.135000
     37 H10          1.7840     1.4220    -0.1970 h4         1 X4C       0.152000
     38 H11          6.0320     2.2520     0.6850 h4         1 X4C       0.029100
     39 H12         -7.3710    -2.0770    -1.4090 hc         1 X4C       0.041367
     40 H13         -7.3050    -2.6440     0.2680 hc         1 X4C       0.041367
     41 H14         -7.9550    -1.0410    -0.0960 hc         1 X4C       0.041367
     42 H15          6.1270    -2.7400     1.2840 hc         1 X4C       0.050367
     43 H16          5.4040    -3.8700     0.1250 hc         1 X4C       0.050367
     44 H17          6.5020    -2.6000    -0.4440 hc         1 X4C       0.050367
     45 H18          0.5340    -0.3820     1.3890 hc         1 X4C       0.071700
     46 H19          0.3330    -2.1210     1.3910 hc         1 X4C       0.071700
     47 H20          0.7220    -0.5120    -1.1950 hc         1 X4C       0.072700
     48 H21          0.7350    -2.2560    -1.0340 hc         1 X4C       0.072700
     49 C28          5.7070    -2.8270     0.2760 c3         1 X4C      -0.009900
@<TRIPOS>BOND
     1     1     2 ar  
     2     1     3 ar  
     3     1    28 1   
     4     2     6 ar  
     5     2    29 1   
     6     3     7 ar  
     7     3    30 1   
     8     4     5 ar  
     9     4     9 ar  
    10     4    31 1   
    11     5    11 ar  
    12     5    32 1   
    13     6    12 ar  
    14     6    33 1   
    15     7    12 ar  
    16     7    34 1   
    17     8     9 ar  
    18     8    10 ar  
    19     8    35 1   
    20     9    20 1   
    21    10    11 ar  
    22    10    23 1   
    23    11    26 1   
    24    12    26 1   
    25    13    14 2   
    26    13    24 1   
    27    13    49 1   
    28    14    25 1   
    29    14    27 1   
    30    15    21 1   
    31    15    23 2   
    32    15    26 1   
    33    16    22 1   
    34    16    24 2   
    35    16    27 1   
    36    17    18 2   
    37    17    19 1   
    38    17    36 1   
    39    18    27 1   
    40    18    37 1   
    41    19    25 2   
    42    19    38 1   
    43    20    39 1   
    44    20    40 1   
    45    20    41 1   
    46    21    22 1   
    47    21    45 1   
    48    21    46 1   
    49    22    47 1   
    50    22    48 1   
    51    42    49 1   
    52    43    49 1   
    53    44    49 1   
@<TRIPOS>SUBSTRUCTURE
     1 X4C         1 TEMP              0 ****  ****    0 ROOT
