@<TRIPOS>MOLECULE
X4D
   46    50     1     0     0
SMALL
abcg2


@<TRIPOS>ATOM
      1 C25         -1.4370     4.5210     0.3240 ca         1 X4D      -0.103000
      2 C24         -0.9490     3.8390    -0.7830 ca         1 X4D      -0.103000
      3 C26         -2.0320     3.8190     1.3650 ca         1 X4D      -0.103000
      4 C17         -5.1910    -0.9620    -0.2960 ca         1 X4D      -0.098000
      5 C15         -4.2520     0.0450    -0.1640 ca         1 X4D      -0.106000
      6 C23         -1.0580     2.4570    -0.8540 ca         1 X4D      -0.100500
      7 C27         -2.1320     2.4370     1.3070 ca         1 X4D      -0.100500
      8 C12         -3.5180    -2.6970    -0.1250 ca         1 X4D      -0.053000
      9 C9           4.6890     1.1820    -1.0090 cc         1 X4D      -0.040400
     10 C16         -4.8450    -2.3280    -0.2800 ca         1 X4D      -0.099300
     11 C8          -2.5510    -1.7000     0.0090 ca         1 X4D       0.073400
     12 C10         -2.9310    -0.3530    -0.0110 ca         1 X4D      -0.075200
     13 C18         -1.6410     1.7610     0.1970 ca         1 X4D      -0.007200
     14 C7           5.0070     0.0550    -0.2840 cd         1 X4D      -0.209000
     15 C2           2.8560     0.0600    -0.8420 cd         1 X4D       0.380800
     16 C1          -0.7520    -0.5750     0.2450 cc         1 X4D       0.430800
     17 C19          6.1390    -0.5210     0.3290 cd         1 X4D      -0.007000
     18 C22          5.9820    -1.7130     0.9610 cc         1 X4D      -0.186000
     19 C21          4.6910    -2.3220     0.9730 cc         1 X4D       0.318900
     20 C20         -5.9190    -3.3650    -0.4520 c3         1 X4D      -0.041800
     21 C13          1.4400    -0.3750    -0.9340 c3         1 X4D      -0.073700
     22 C11          0.6810    -0.2000     0.3920 c3         1 X4D      -0.092700
     23 N3           3.3770     1.1640    -1.3360 nc         1 X4D      -0.564300
     24 N4          -1.1900    -1.8010     0.1720 nd         1 X4D      -0.576100
     25 N14          3.6320    -1.8230     0.4230 nd         1 X4D      -0.460800
     26 N5          -1.7550     0.3500     0.1370 na         1 X4D      -0.092400
     27 N6           3.8090    -0.6460    -0.1920 na         1 X4D       0.157000
     28 H1          -1.3550     5.5980     0.3740 ha         1 X4D       0.118000
     29 H2          -0.4890     4.3800    -1.5980 ha         1 X4D       0.121000
     30 H3          -2.4140     4.3470     2.2290 ha         1 X4D       0.121000
     31 H4          -6.2330    -0.6910    -0.4170 ha         1 X4D       0.110000
     32 H5          -4.5420     1.0880    -0.1780 ha         1 X4D       0.122000
     33 H6          -0.6980     1.9240    -1.7240 ha         1 X4D       0.129500
     34 H7          -2.5810     1.8840     2.1220 ha         1 X4D       0.129500
     35 H8          -3.2300    -3.7420    -0.1060 ha         1 X4D       0.126000
     36 H10          7.0930    -0.0150     0.2820 ha         1 X4D       0.134000
     37 H11          6.8040    -2.2110     1.4520 ha         1 X4D       0.134000
     38 H12          4.5450    -3.2720     1.4700 h4         1 X4D       0.038100
     39 H13         -6.2270    -3.4460    -1.4960 hc         1 X4D       0.040033
     40 H14         -5.5800    -4.3500    -0.1330 hc         1 X4D       0.040033
     41 H15         -6.8100    -3.1150     0.1250 hc         1 X4D       0.040033
     42 H16          0.9670     0.2160    -1.7180 hc         1 X4D       0.075200
     43 H17          1.3830    -1.4210    -1.2430 hc         1 X4D       0.075200
     44 H18          0.7760     0.8300     0.7390 hc         1 X4D       0.072700
     45 H19          1.1270    -0.8390     1.1550 hc         1 X4D       0.072700
     46 H9           5.3490     1.9840    -1.3020 h4         1 X4D       0.232000
@<TRIPOS>BOND
     1     1     2 ar  
     2     1     3 ar  
     3     1    28 1   
     4     2     6 ar  
     5     2    29 1   
     6     3     7 ar  
     7     3    30 1   
     8     4     5 ar  
     9     4    10 ar  
    10     4    31 1   
    11     5    12 ar  
    12     5    32 1   
    13     6    13 ar  
    14     6    33 1   
    15     7    13 ar  
    16     7    34 1   
    17     8    10 ar  
    18     8    11 ar  
    19     8    35 1   
    20     9    14 2   
    21     9    23 1   
    22     9    46 1   
    23    10    20 1   
    24    11    12 ar  
    25    11    24 1   
    26    12    26 1   
    27    13    26 1   
    28    14    17 1   
    29    14    27 1   
    30    15    21 1   
    31    15    23 2   
    32    15    27 1   
    33    16    22 1   
    34    16    24 2   
    35    16    26 1   
    36    17    18 2   
    37    17    36 1   
    38    18    19 1   
    39    18    37 1   
    40    19    25 2   
    41    19    38 1   
    42    20    39 1   
    43    20    40 1   
    44    20    41 1   
    45    21    22 1   
    46    21    42 1   
    47    21    43 1   
    48    22    44 1   
    49    22    45 1   
    50    25    27 1   
@<TRIPOS>SUBSTRUCTURE
     1 X4D         1 TEMP              0 ****  ****    0 ROOT
