@<TRIPOS>MOLECULE
X4D
   46    50     1     0     0
SMALL
No Charge or Current Charge


@<TRIPOS>ATOM
      1 C25         -1.2760     4.4090    -0.2800 ca         1 X4D      -0.103000
      2 C24         -1.5110     3.5930    -1.4000 ca         1 X4D      -0.103000
      3 C26         -1.2450     3.8450     1.0070 ca         1 X4D      -0.103000
      4 C17         -5.3020    -0.9560    -0.4930 ca         1 X4D      -0.098000
      5 C15         -4.3020     0.0270    -0.3430 ca         1 X4D      -0.106000
      6 C23         -1.7100     2.2110    -1.2330 ca         1 X4D      -0.100500
      7 C27         -1.4440     2.4630     1.1740 ca         1 X4D      -0.100500
      8 C12         -3.6810    -2.7200     0.0470 ca         1 X4D      -0.053000
      9 C9           4.6780     1.4590     0.1760 cc         1 X4D      -0.040400
     10 C16         -4.9980    -2.3290    -0.2980 ca         1 X4D      -0.099300
     11 C8          -2.7000    -1.7280     0.1910 ca         1 X4D       0.073400
     12 C10         -3.0170    -0.4120    -0.0020 ca         1 X4D      -0.075200
     13 C18         -1.6730     1.6410     0.0530 ca         1 X4D      -0.007200
     14 C7           5.0220     0.1310     0.2120 cd         1 X4D      -0.209000
     15 C2           2.8360     0.3450    -0.2170 cd         1 X4D       0.380800
     16 C1          -0.8540    -0.6410     0.5260 cc         1 X4D       0.430800
     17 C19          6.2840    -0.4730     0.4510 cd         1 X4D      -0.007000
     18 C22          6.2250    -1.8480     0.4110 cc         1 X4D      -0.186000
     19 C21          4.9650    -2.5080     0.1470 cc         1 X4D       0.318900
     20 C20         -6.0850    -3.3790    -0.4660 c3         1 X4D      -0.041800
     21 C13          1.3900     0.0210    -0.4950 c3         1 X4D      -0.073700
     22 C11          0.5890    -0.2950     0.7910 c3         1 X4D      -0.092700
     23 N3           3.3230     1.5870    -0.0880 nc         1 X4D      -0.564300
     24 N4          -1.3510    -1.8970     0.5220 nd         1 X4D      -0.576100
     25 N14          3.7700    -1.9380    -0.0790 nd         1 X4D      -0.460800
     26 N5          -1.8650     0.2720     0.2140 na         1 X4D      -0.092400
     27 N6           3.8720    -0.5540    -0.0330 na         1 X4D       0.157000
     28 H1          -1.1220     5.4780    -0.4090 ha         1 X4D       0.118000
     29 H2          -1.5380     4.0300    -2.3960 ha         1 X4D       0.121000
     30 H3          -1.0670     4.4770     1.8740 ha         1 X4D       0.121000
     31 H4          -6.3120    -0.6550    -0.7600 ha         1 X4D       0.110000
     32 H5          -4.5210     1.0820    -0.4870 ha         1 X4D       0.122000
     33 H6          -1.8910     1.5830    -2.1030 ha         1 X4D       0.129500
     34 H7          -1.4230     2.0330     2.1730 ha         1 X4D       0.129500
     35 H8          -3.4280    -3.7660     0.1970 ha         1 X4D       0.126000
     36 H10          7.1960     0.0840     0.6460 ha         1 X4D       0.134000
     37 H11          7.1090    -2.4530     0.5750 ha         1 X4D       0.134000
     38 H12          4.9200    -3.5880     0.1170 h4         1 X4D       0.038100
     39 H13         -6.1540    -3.7060    -1.5100 hc         1 X4D       0.040033
     40 H14         -5.8870    -4.2640     0.1510 hc         1 X4D       0.040033
     41 H15         -7.0670    -2.9880    -0.1720 hc         1 X4D       0.040033
     42 H16          0.9220     0.8620    -1.0190 hc         1 X4D       0.075200
     43 H17          1.3310    -0.8360    -1.1770 hc         1 X4D       0.075200
     44 H18          0.6450     0.5610     1.4730 hc         1 X4D       0.072700
     45 H19          1.0680    -1.1320     1.3130 hc         1 X4D       0.072700
     46 H9           5.3150     2.3320     0.3240 h4         1 X4D       0.232000
@<TRIPOS>BOND
     1     1     2 ar  
     2     1     3 ar  
     3     1    28 1   
     4     2     6 ar  
     5     2    29 1   
     6     3     7 ar  
     7     3    30 1   
     8     4     5 ar  
     9     4    10 ar  
    10     4    31 1   
    11     5    12 ar  
    12     5    32 1   
    13     6    13 ar  
    14     6    33 1   
    15     7    13 ar  
    16     7    34 1   
    17     8    10 ar  
    18     8    11 ar  
    19     8    35 1   
    20     9    14 2   
    21     9    23 1   
    22     9    46 1   
    23    10    20 1   
    24    11    12 ar  
    25    11    24 1   
    26    12    26 1   
    27    13    26 1   
    28    14    17 1   
    29    14    27 1   
    30    15    21 1   
    31    15    23 2   
    32    15    27 1   
    33    16    22 1   
    34    16    24 2   
    35    16    26 1   
    36    17    18 2   
    37    17    36 1   
    38    18    19 1   
    39    18    37 1   
    40    19    25 2   
    41    19    38 1   
    42    20    39 1   
    43    20    40 1   
    44    20    41 1   
    45    21    22 1   
    46    21    42 1   
    47    21    43 1   
    48    22    44 1   
    49    22    45 1   
    50    25    27 1   
@<TRIPOS>SUBSTRUCTURE
     1 X4D         1 TEMP              0 ****  ****    0 ROOT
