@<TRIPOS>MOLECULE
X4G
   63    66     1     0     0
SMALL
bcc


@<TRIPOS>ATOM
      1 C4          -1.2070     1.6590    -0.0540 ca         1 X4G       0.594800
      2 C5          -0.7500     2.8400    -0.6480 ca         1 X4G      -0.188700
      3 C6           0.5910     2.9390    -0.9190 ca         1 X4G       0.463200
      4 N1           1.4540     1.9700    -0.6480 nb         1 X4G      -0.749000
      5 N3          -0.3460     0.6970     0.2050 nb         1 X4G      -0.816000
      6 OAE         -9.1640    -2.9290    -0.5520 oh         1 X4G      -0.593800
      7 CBE         -8.3050    -1.8130    -0.5460 c5         1 X4G       0.139100
      8 CAQ         -7.4190    -1.8290     0.6890 c5         1 X4G       0.167800
      9 CAN         -7.2850    -1.7670    -1.7000 c5         1 X4G      -0.121400
     10 CAO         -5.9710    -1.3190    -1.0430 c5         1 X4G       0.170800
     11 NBF         -6.3560    -0.9330     0.3050 n3         1 X4G      -0.735600
     12 CBA         -4.3340     0.2740     0.8850 cc         1 X4G      -0.150300
     13 CAK         -3.0170     0.1610     0.5710 cd         1 X4G      -0.112300
     14 CAX         -4.6830     1.6620     0.7910 cc         1 X4G      -0.101300
     15 CAC         -6.0220     2.2530     1.0730 c3         1 X4G      -0.017800
     16 CAJ         -3.5610     2.3300     0.4120 cd         1 X4G      -0.146300
     17 NBG         -2.5270     1.4170     0.2750 na         1 X4G      -0.108900
     18 F5          -1.5710     3.8470    -0.9740 f          1 X4G      -0.123900
     19 C2           0.9410     0.8770    -0.0970 ca         1 X4G       0.939900
     20 NAT          1.7360    -0.1770     0.2210 nu         1 X4G      -0.728300
     21 CAZ          3.1140    -0.3730     0.1170 ca         1 X4G       0.176600
     22 CAI          3.9950     0.4860    -0.5340 ca         1 X4G      -0.166500
     23 CAW          5.3550     0.1980    -0.5900 ca         1 X4G      -0.054300
     24 CAB          6.2910     1.1250    -1.3080 c3         1 X4G      -0.044300
     25 CAH          3.6180    -1.5380     0.6970 ca         1 X4G      -0.166500
     26 CAV          4.9670    -1.8480     0.6530 ca         1 X4G      -0.054300
     27 CAA          5.4810    -3.1190     1.2640 c3         1 X4G      -0.044300
     28 CBC          5.8330    -0.9650     0.0100 ca         1 X4G       0.071100
     29 OAU          7.1640    -1.2640    -0.0720 os         1 X4G      -0.334900
     30 CAM          7.9670    -0.7650     0.9800 c3         1 X4G       0.138400
     31 CAL          9.4080    -0.7330     0.5370 c3         1 X4G       0.136400
     32 OAD          9.5750     0.2620    -0.4380 oh         1 X4G      -0.591800
     33 H1           0.9810     3.8410    -1.3800 h4         1 X4G       0.042100
     34 H3          -8.8850    -0.8820    -0.5420 h1         1 X4G       0.042700
     35 H4          -7.9280    -1.4740     1.5890 h1         1 X4G       0.046700
     36 H5          -7.0690    -2.8600     0.8830 h1         1 X4G       0.046700
     37 H6          -7.1780    -2.7610    -2.1370 hc         1 X4G       0.050200
     38 H7          -7.6040    -1.0950    -2.4960 hc         1 X4G       0.050200
     39 H8          -5.2490    -2.1520    -1.0320 h1         1 X4G       0.040200
     40 H9          -5.4920    -0.4890    -1.5640 h1         1 X4G       0.040200
     41 H13         -2.3810    -0.7060     0.5190 h4         1 X4G       0.181000
     42 H14         -6.3230     2.0740     2.1070 hc         1 X4G       0.043367
     43 H15         -6.0270     3.3300     0.9100 hc         1 X4G       0.043367
     44 H16         -6.7880     1.8030     0.4420 hc         1 X4G       0.043367
     45 H17         -3.4200     3.3850     0.2660 h4         1 X4G       0.179000
     46 H18          1.2270    -0.9280     0.6570 hn         1 X4G       0.454800
     47 H19          3.6290     1.3860    -1.0000 ha         1 X4G       0.148500
     48 H20          6.9330     1.6730    -0.6170 hc         1 X4G       0.047367
     49 H21          6.9550     0.5850    -1.9810 hc         1 X4G       0.047367
     50 H22          5.7350     1.8590    -1.8890 hc         1 X4G       0.047367
     51 H23          2.9430    -2.2230     1.2010 ha         1 X4G       0.148500
     52 H24          6.0250    -3.7190     0.5350 hc         1 X4G       0.047367
     53 H25          6.1630    -2.9260     2.0930 hc         1 X4G       0.047367
     54 H26          4.6630    -3.7230     1.6530 hc         1 X4G       0.047367
     55 H27          7.6470     0.2380     1.2840 h1         1 X4G       0.036700
     56 H28          7.8930    -1.4110     1.8660 h1         1 X4G       0.036700
     57 H29         10.0210    -0.5420     1.4300 h1         1 X4G       0.026700
     58 H30          9.6870    -1.7290     0.1680 h1         1 X4G       0.026700
     59 H31         10.4540     0.1820    -0.8120 ho         1 X4G       0.405000
     60 CAP         -5.2640    -0.8370     1.2420 c3         1 X4G       0.256100
     61 H2          -9.7610    -2.8410    -1.2980 ho         1 X4G       0.405000
     62 H11         -5.6900    -0.6510     2.2340 h1         1 X4G       0.035700
     63 H12         -4.6990    -1.7830     1.3160 h1         1 X4G       0.035700
@<TRIPOS>BOND
     1     1     2 ar  
     2     1     5 ar  
     3     1    17 1   
     4     2     3 ar  
     5     2    18 1   
     6     3     4 ar  
     7     3    33 1   
     8     4    19 ar  
     9     5    19 ar  
    10     6     7 1   
    11     6    61 1   
    12     7     8 1   
    13     7     9 1   
    14     7    34 1   
    15     8    11 1   
    16     8    35 1   
    17     8    36 1   
    18     9    10 1   
    19     9    37 1   
    20     9    38 1   
    21    10    11 1   
    22    10    39 1   
    23    10    40 1   
    24    11    60 1   
    25    12    13 2   
    26    12    14 1   
    27    12    60 1   
    28    13    17 1   
    29    13    41 1   
    30    14    15 1   
    31    14    16 2   
    32    15    42 1   
    33    15    43 1   
    34    15    44 1   
    35    16    17 1   
    36    16    45 1   
    37    19    20 1   
    38    20    21 1   
    39    20    46 1   
    40    21    22 ar  
    41    21    25 ar  
    42    22    23 ar  
    43    22    47 1   
    44    23    24 1   
    45    23    28 ar  
    46    24    48 1   
    47    24    49 1   
    48    24    50 1   
    49    25    26 ar  
    50    25    51 1   
    51    26    27 1   
    52    26    28 ar  
    53    27    52 1   
    54    27    53 1   
    55    27    54 1   
    56    28    29 1   
    57    29    30 1   
    58    30    31 1   
    59    30    55 1   
    60    30    56 1   
    61    31    32 1   
    62    31    57 1   
    63    31    58 1   
    64    32    59 1   
    65    60    62 1   
    66    60    63 1   
@<TRIPOS>SUBSTRUCTURE
     1 X4G         1 TEMP              0 ****  ****    0 ROOT
