@<TRIPOS>MOLECULE
X4G
   63    66     1     0     0
SMALL
No Charge or Current Charge


@<TRIPOS>ATOM
      1 C4          -1.3210     1.0690    -1.0000 ca         1 X4G       0.266500
      2 C5          -0.9340     1.8510    -2.1140 ca         1 X4G      -0.023000
      3 C6           0.4250     1.8970    -2.4640 ca         1 X4G       0.134900
      4 N1           1.3510     1.2200    -1.7610 nb         1 X4G      -0.223000
      5 N3          -0.3710     0.3960    -0.3050 nb         1 X4G      -0.290000
      6 OAE         -9.4900    -2.7230    -0.5700 oh         1 X4G      -0.656000
      7 CBE         -8.8690    -1.5330    -0.0690 c5         1 X4G       0.162300
      8 CAQ         -7.6170    -1.8410     0.8270 c5         1 X4G       0.167800
      9 CAN         -8.2770    -0.6680    -1.2270 c5         1 X4G      -0.121400
     10 CAO         -6.7530    -0.9080    -1.1060 c5         1 X4G       0.170800
     11 NBF         -6.6000    -0.8670     0.3600 n3         1 X4G      -0.735600
     12 CBA         -4.2460    -0.0520     0.3950 cc         1 X4G      -0.150300
     13 CAK         -3.2710    -0.2140    -0.5600 cd         1 X4G      -0.145000
     14 CAX         -4.1420     1.2650     0.9350 cc         1 X4G      -0.101300
     15 CAC         -5.0070     1.7840     2.0530 c3         1 X4G      -0.017800
     16 CAJ         -3.1050     1.9160     0.3170 cd         1 X4G      -0.179000
     17 NBG         -2.6810     1.0400    -0.6760 na         1 X4G      -0.007500
     18 F5          -1.8430     2.5440    -2.8440 f          1 X4G      -0.159000
     19 C2           0.9030     0.5130    -0.7090 ca         1 X4G       0.413900
     20 NAT          1.8060    -0.2320     0.0330 nu         1 X4G      -0.921900
     21 CAZ          3.2010    -0.3420     0.0630 ca         1 X4G       0.315000
     22 CAI          4.0460     0.7170    -0.3160 ca         1 X4G      -0.148500
     23 CAW          5.4470     0.5790    -0.2620 ca         1 X4G      -0.054300
     24 CAB          6.3310     1.7440    -0.6940 c3         1 X4G      -0.044300
     25 CAH          3.7680    -1.5420     0.5210 ca         1 X4G      -0.148500
     26 CAV          5.1650    -1.7040     0.5840 ca         1 X4G      -0.054300
     27 CAA          5.7540    -3.0230     1.0730 c3         1 X4G      -0.044300
     28 CBC          6.0040    -0.6360     0.1970 ca         1 X4G       0.071100
     29 OAU          7.3690    -0.7870     0.2650 os         1 X4G      -0.358100
     30 CAM          8.0680    -0.3230     1.4360 c3         1 X4G       0.161600
     31 CAL          9.5830    -0.6030     1.2680 c3         1 X4G       0.159600
     32 OAD         10.1580     0.2070     0.2260 oh         1 X4G      -0.654000
     33 H1           0.7760     2.4780    -3.3150 h4         1 X4G       0.042100
     34 H3          -9.6020    -0.9400     0.4960 h1         1 X4G       0.042700
     35 H4          -7.8420    -1.7160     1.8950 h1         1 X4G       0.046700
     36 H5          -7.2740    -2.8740     0.6760 h1         1 X4G       0.046700
     37 H6          -8.6610    -0.9400    -2.2160 hc         1 X4G       0.050200
     38 H7          -8.5110     0.3920    -1.0730 hc         1 X4G       0.050200
     39 H8          -6.4610    -1.8840    -1.5210 h1         1 X4G       0.040200
     40 H9          -6.1730    -0.1260    -1.6170 h1         1 X4G       0.040200
     41 H13         -2.9770    -1.0770    -1.1470 h4         1 X4G       0.163000
     42 H14         -4.8540     1.2030     2.9700 hc         1 X4G       0.043367
     43 H15         -4.7750     2.8320     2.2760 hc         1 X4G       0.043367
     44 H16         -6.0690     1.7250     1.7850 hc         1 X4G       0.043367
     45 H17         -2.6670     2.8930     0.4870 h4         1 X4G       0.161000
     46 H18          1.3330    -0.8970     0.6440 hn         1 X4G       0.510000
     47 H19          3.6220     1.6620    -0.6370 ha         1 X4G       0.130500
     48 H20          6.6810     2.3140     0.1740 hc         1 X4G       0.047367
     49 H21          7.2130     1.3960    -1.2460 hc         1 X4G       0.047367
     50 H22          5.7920     2.4370    -1.3510 hc         1 X4G       0.047367
     51 H23          3.1180    -2.3590     0.8210 ha         1 X4G       0.130500
     52 H24          6.5200    -3.3950     0.3830 hc         1 X4G       0.047367
     53 H25          6.2190    -2.9030     2.0580 hc         1 X4G       0.047367
     54 H26          4.9880    -3.8030     1.1610 hc         1 X4G       0.047367
     55 H27          7.9080     0.7520     1.5910 h1         1 X4G       0.036700
     56 H28          7.7040    -0.8500     2.3280 h1         1 X4G       0.036700
     57 H29         10.0830    -0.3940     2.2230 h1         1 X4G       0.026700
     58 H30          9.7260    -1.6700     1.0490 h1         1 X4G       0.026700
     59 H31         11.1010    -0.0590     0.1450 ho         1 X4G       0.444000
     60 CAP         -5.2320    -1.0920     0.8740 c3         1 X4G       0.256100
     61 H2         -10.2530    -2.4340    -1.1170 ho         1 X4G       0.444000
     62 H11         -5.2420    -1.0850     1.9720 h1         1 X4G       0.035700
     63 H12         -4.8740    -2.0830     0.5640 h1         1 X4G       0.035700
@<TRIPOS>BOND
     1     1     2 ar  
     2     1     5 ar  
     3     1    17 1   
     4     2     3 ar  
     5     2    18 1   
     6     3     4 ar  
     7     3    33 1   
     8     4    19 ar  
     9     5    19 ar  
    10     6     7 1   
    11     6    61 1   
    12     7     8 1   
    13     7     9 1   
    14     7    34 1   
    15     8    11 1   
    16     8    35 1   
    17     8    36 1   
    18     9    10 1   
    19     9    37 1   
    20     9    38 1   
    21    10    11 1   
    22    10    39 1   
    23    10    40 1   
    24    11    60 1   
    25    12    13 2   
    26    12    14 1   
    27    12    60 1   
    28    13    17 1   
    29    13    41 1   
    30    14    15 1   
    31    14    16 2   
    32    15    42 1   
    33    15    43 1   
    34    15    44 1   
    35    16    17 1   
    36    16    45 1   
    37    19    20 1   
    38    20    21 1   
    39    20    46 1   
    40    21    22 ar  
    41    21    25 ar  
    42    22    23 ar  
    43    22    47 1   
    44    23    24 1   
    45    23    28 ar  
    46    24    48 1   
    47    24    49 1   
    48    24    50 1   
    49    25    26 ar  
    50    25    51 1   
    51    26    27 1   
    52    26    28 ar  
    53    27    52 1   
    54    27    53 1   
    55    27    54 1   
    56    28    29 1   
    57    29    30 1   
    58    30    31 1   
    59    30    55 1   
    60    30    56 1   
    61    31    32 1   
    62    31    57 1   
    63    31    58 1   
    64    32    59 1   
    65    60    62 1   
    66    60    63 1   
@<TRIPOS>SUBSTRUCTURE
     1 X4G         1 TEMP              0 ****  ****    0 ROOT
