@<TRIPOS>MOLECULE
X4I
   49    51     1     0     0
SMALL
No Charge or Current Charge


@<TRIPOS>ATOM
      1 C10         14.2930    11.7920    15.3670 ca         1 X4I      -0.093000
      2 N12         15.3440     9.5460    11.5030 ns         1 X4I      -0.479900
      3 C13         16.6670     9.3640    11.8390 c          1 X4I       0.570100
      4 C17         14.4350     6.7100    14.3470 ca         1 X4I      -0.247500
      5 C20         14.5300     7.8630    16.4850 ca         1 X4I      -0.239000
      6 C21         15.7450     8.4440    16.1050 ca         1 X4I       0.236500
      7 C02         11.0230    10.8030    18.9490 ca         1 X4I       0.157000
      8 C03         11.4310    10.8000    17.6040 ca         1 X4I      -0.132500
      9 C04         12.7920    10.9870    17.2510 cp         1 X4I       0.003000
     10 C05         13.2300    10.9720    15.8200 cp         1 X4I      -0.028000
     11 C06         12.6100    10.1170    14.8760 ca         1 X4I      -0.093000
     12 C07         13.0410    10.0730    13.5410 ca         1 X4I      -0.087000
     13 C08         14.0990    10.8960    13.1060 ca         1 X4I      -0.127300
     14 C09         14.7220    11.7550    14.0290 ca         1 X4I      -0.087000
     15 C11         14.6070    10.8110    11.6670 c3         1 X4I       0.091000
     16 C14         17.1180     7.8720    11.9220 c3         1 X4I       0.145800
     17 C16         15.6500     7.2920    13.9740 ca         1 X4I       0.372000
     18 C18         13.8780     6.9980    15.6000 ca         1 X4I       0.236500
     19 C23         16.3090     8.1580    14.8560 ca         1 X4I      -0.247500
     20 C25         13.4530    10.9380    10.6280 c          1 X4I       0.579100
     21 C29         13.7270    11.1760    18.3010 ca         1 X4I      -0.132500
     22 C30         13.3180    11.1770    19.6450 ca         1 X4I       0.157000
     23 C32         11.9650    10.9910    19.9750 ca         1 X4I       0.093000
     24 F19         12.7000     6.4420    15.9540 f          1 X4I      -0.178500
     25 F31         14.2380    11.3540    20.6200 f          1 X4I      -0.156500
     26 F33         11.5710    10.9920    21.2710 f          1 X4I      -0.142000
     27 N15         16.1800     7.0020    12.7180 nu         1 X4I      -0.986200
     28 N26         12.7660    12.1430    10.6420 ns         1 X4I      -0.358400
     29 O24         17.4100    10.3040    12.0960 o          1 X4I      -0.592100
     30 O27         11.5610    12.3050     9.8570 oh         1 X4I      -0.438100
     31 O28         13.1280    10.0430     9.8520 o          1 X4I      -0.623100
     32 H1          14.7910    12.4670    16.0580 ha         1 X4I       0.123500
     33 H2          14.8120     8.7020    11.3250 hn         1 X4I       0.329500
     34 H3          13.9150     6.0400    13.6710 ha         1 X4I       0.140000
     35 H4          14.0950     8.0870    17.4540 ha         1 X4I       0.153000
     36 H5          10.6790    10.6640    16.8310 ha         1 X4I       0.145500
     37 H6          11.8060     9.4550    15.1870 ha         1 X4I       0.123500
     38 H7          12.5600     9.3840    12.8500 ha         1 X4I       0.127500
     39 H8          15.5520    12.3860    13.7170 ha         1 X4I       0.127500
     40 H9          15.2880    11.6490    11.4680 h1         1 X4I       0.098700
     41 H10         18.1210     7.8630    12.3710 h1         1 X4I       0.084200
     42 H11         17.2110     7.4980    10.8930 h1         1 X4I       0.084200
     43 H12         17.2550     8.6120    14.5850 ha         1 X4I       0.140000
     44 H13         14.7810    11.3070    18.0770 ha         1 X4I       0.145500
     45 H14         15.7070     6.2460    12.2140 hn         1 X4I       0.498000
     46 H15         12.9070    12.8030    11.4070 hn         1 X4I       0.364500
     47 H16         11.3730    11.3790     9.5620 ho         1 X4I       0.476000
     48 F01          9.7160    10.6260    19.2480 f          1 X4I      -0.156500
     49 F22         16.3810     9.2810    16.9520 f          1 X4I      -0.178500
@<TRIPOS>BOND
     1     1    10 ar  
     2     1    14 ar  
     3     1    32 1   
     4     2     3 1   
     5     2    15 1   
     6     2    33 1   
     7     3    16 1   
     8     3    29 2   
     9     4    17 ar  
    10     4    18 ar  
    11     4    34 1   
    12     5     6 ar  
    13     5    18 ar  
    14     5    35 1   
    15     6    19 ar  
    16     6    49 1   
    17     7     8 ar  
    18     7    23 ar  
    19     7    48 1   
    20     8     9 ar  
    21     8    36 1   
    22     9    10 1   
    23     9    21 ar  
    24    10    11 ar  
    25    11    12 ar  
    26    11    37 1   
    27    12    13 ar  
    28    12    38 1   
    29    13    14 ar  
    30    13    15 1   
    31    14    39 1   
    32    15    20 1   
    33    15    40 1   
    34    16    27 1   
    35    16    41 1   
    36    16    42 1   
    37    17    19 ar  
    38    17    27 1   
    39    18    24 1   
    40    19    43 1   
    41    20    28 1   
    42    20    31 2   
    43    21    22 ar  
    44    21    44 1   
    45    22    23 ar  
    46    22    25 1   
    47    23    26 1   
    48    27    45 1   
    49    28    30 1   
    50    28    46 1   
    51    30    47 1   
@<TRIPOS>SUBSTRUCTURE
     1 X4I         1 TEMP              0 ****  ****    0 ROOT
