@<TRIPOS>MOLECULE
X4L
   52    55     1     0     0
SMALL
No Charge or Current Charge


@<TRIPOS>ATOM
      1 C10        158.9790   135.3830   129.0920 c5         1 X4L      -0.093400
      2 N12        159.0380   137.5770   129.9190 n7         1 X4L      -0.854400
      3 C13        158.7790   137.7410   128.4580 c5         1 X4L       0.115800
      4 C15        157.0100   137.6510   124.0720 cc         1 X4L       0.422000
      5 C17        158.8320   139.1780   123.1690 c3         1 X4L       0.282100
      6 C20        157.7550   141.9790   125.5750 ca         1 X4L      -0.109500
      7 C21        158.7330   141.8790   126.5790 ca         1 X4L      -0.105000
      8 C22        159.7470   140.9120   126.4760 ca         1 X4L      -0.109500
      9 C26        153.6240   137.0860   123.4150 cc         1 X4L       0.416500
     10 C01        151.4750   136.6880   125.7460 c3         1 X4L      -0.085100
     11 C03        152.0620   134.5260   124.5180 c3         1 X4L      -0.085100
     12 C04        153.7290   136.4140   124.6500 cc         1 X4L      -0.325800
     13 C05        155.0270   136.5670   125.0070 cd         1 X4L       0.470500
     14 C07        156.9430   136.4410   126.1680 cd         1 X4L       0.683900
     15 C09        158.8480   136.2930   127.8370 c5         1 X4L       0.242500
     16 C11        159.7940   136.3120   130.0190 c5         1 X4L       0.144800
     17 C14        157.6590   137.1810   125.1930 cd         1 X4L      -0.380000
     18 C18        158.7990   140.1320   124.3630 ca         1 X4L      -0.118300
     19 C19        157.7890   141.1100   124.4710 ca         1 X4L      -0.097500
     20 C23        159.7810   140.0420   125.3720 ca         1 X4L      -0.097500
     21 N06        155.6840   136.1510   126.0720 nc         1 X4L      -0.788000
     22 N08        157.5030   135.9870   127.2900 nu         1 X4L      -0.917100
     23 N24        155.6490   137.3110   123.9970 na         1 X4L       0.046900
     24 N25        154.7420   137.6430   122.9760 nd         1 X4L      -0.637100
     25 H1         158.0170   135.1340   129.5570 hc         1 X4L       0.057700
     26 H2         159.4970   134.4430   128.8750 hc         1 X4L       0.057700
     27 H3         159.5860   138.3670   130.2880 hn         1 X4L       0.416000
     28 H5         159.5590   138.3670   128.0020 h1         1 X4L       0.048200
     29 H6         157.8180   138.2450   128.2820 h1         1 X4L       0.048200
     30 H7         159.6900   138.4970   123.2600 h1         1 X4L       0.059200
     31 H8         158.9810   139.7650   122.2510 h1         1 X4L       0.059200
     32 H10        158.7070   142.5520   127.4340 ha         1 X4L       0.115000
     33 H11        160.5060   140.8360   127.2510 ha         1 X4L       0.115000
     34 H12        152.7320   137.1850   122.8100 h4         1 X4L       0.038800
     35 H13        150.6930   136.1730   126.3180 hc         1 X4L       0.030700
     36 H14        151.8730   137.4990   126.3680 hc         1 X4L       0.030700
     37 H15        151.0140   137.1320   124.8560 hc         1 X4L       0.030700
     38 H17        151.2890   133.9800   125.0720 hc         1 X4L       0.030700
     39 H18        151.6260   134.8790   123.5760 hc         1 X4L       0.030700
     40 H19        152.8710   133.8250   124.2810 hc         1 X4L       0.030700
     41 H20        159.6780   136.1710   127.1270 h1         1 X4L       0.062700
     42 H21        159.8390   135.9420   131.0530 h1         1 X4L       0.037700
     43 H22        160.8240   136.4370   129.6520 h1         1 X4L       0.037700
     44 H23        158.7090   137.3830   125.3320 ha         1 X4L       0.136000
     45 H24        157.0250   141.1920   123.7000 ha         1 X4L       0.115000
     46 H25        160.5700   139.2960   125.3040 ha         1 X4L       0.115000
     47 H26        156.7960   135.5560   127.8740 hn         1 X4L       0.505000
     48 N16        157.5850   138.4020   123.0720 nu         1 X4L      -0.967200
     49 C02        152.5990   135.7060   125.3550 c3         1 X4L       0.036500
     50 H9         156.9710   142.7280   125.6540 ha         1 X4L       0.115000
     51 H16        152.9890   135.2810   126.2900 hc         1 X4L       0.054700
     52 H27        156.9050   138.6840   122.3610 hn         1 X4L       0.530000
@<TRIPOS>BOND
     1     1    15 1   
     2     1    16 1   
     3     1    25 1   
     4     1    26 1   
     5     2     3 1   
     6     2    16 1   
     7     2    27 1   
     8     3    15 1   
     9     3    28 1   
    10     3    29 1   
    11     4    17 2   
    12     4    23 1   
    13     4    48 1   
    14     5    18 1   
    15     5    30 1   
    16     5    31 1   
    17     5    48 1   
    18     6     7 ar  
    19     6    19 ar  
    20     6    50 1   
    21     7     8 ar  
    22     7    32 1   
    23     8    20 ar  
    24     8    33 1   
    25     9    12 1   
    26     9    24 2   
    27     9    34 1   
    28    10    35 1   
    29    10    36 1   
    30    10    37 1   
    31    10    49 1   
    32    11    38 1   
    33    11    39 1   
    34    11    40 1   
    35    11    49 1   
    36    12    13 2   
    37    12    49 1   
    38    13    21 1   
    39    13    23 1   
    40    14    17 1   
    41    14    21 2   
    42    14    22 1   
    43    15    22 1   
    44    15    41 1   
    45    16    42 1   
    46    16    43 1   
    47    17    44 1   
    48    18    19 ar  
    49    18    20 ar  
    50    19    45 1   
    51    20    46 1   
    52    22    47 1   
    53    23    24 1   
    54    48    52 1   
    55    49    51 1   
@<TRIPOS>SUBSTRUCTURE
     1 X4L         1 TEMP              0 ****  ****    0 ROOT
