@<TRIPOS>MOLECULE
X4L
   52    55     1     0     0
SMALL
abcg2


@<TRIPOS>ATOM
      1 C10        159.2430   135.4110   128.8170 c5         1 X4L      -0.093400
      2 N12        158.5350   137.4590   129.7180 n7         1 X4L      -0.854400
      3 C13        158.8500   137.7370   128.3300 c5         1 X4L       0.115800
      4 C15        156.7170   137.8860   124.2560 cc         1 X4L       0.422000
      5 C17        158.5550   139.1700   123.2900 c3         1 X4L       0.282100
      6 C20        158.3140   141.8870   125.9440 ca         1 X4L      -0.109500
      7 C21        159.5680   141.8110   126.5370 ca         1 X4L      -0.105000
      8 C22        160.4860   140.8760   126.0810 ca         1 X4L      -0.109500
      9 C26        153.4020   137.4340   123.5490 cc         1 X4L       0.416500
     10 C01        150.9940   136.2530   124.8810 c3         1 X4L      -0.085100
     11 C03        152.6070   134.3550   125.2120 c3         1 X4L      -0.085100
     12 C04        153.4600   136.6510   124.7100 cc         1 X4L      -0.325800
     13 C05        154.7900   136.7490   125.1130 cd         1 X4L       0.470500
     14 C07        156.7420   136.5270   126.2480 cd         1 X4L       0.683900
     15 C09        158.7560   136.3460   127.6880 c5         1 X4L       0.242500
     16 C11        159.3670   136.3130   130.0540 c5         1 X4L       0.144800
     17 C14        157.4210   137.3510   125.3110 cd         1 X4L      -0.380000
     18 C18        158.8960   140.0930   124.4390 ca         1 X4L      -0.118300
     19 C19        157.9800   141.0340   124.9010 ca         1 X4L      -0.097500
     20 C23        160.1480   140.0200   125.0400 ca         1 X4L      -0.097500
     21 N06        155.4520   136.2330   126.1550 nc         1 X4L      -0.788000
     22 N08        157.4110   135.9850   127.2910 nu         1 X4L      -0.917100
     23 N24        155.3960   137.5580   124.1790 na         1 X4L       0.046900
     24 N25        154.5600   137.9870   123.2190 nd         1 X4L      -0.637100
     25 H1         158.5310   134.6020   128.9790 hc         1 X4L       0.057700
     26 H2         160.1960   134.9480   128.5640 hc         1 X4L       0.057700
     27 H3         158.7270   138.2520   130.3160 hn         1 X4L       0.416000
     28 H5         159.8700   138.1270   128.1840 h1         1 X4L       0.048200
     29 H6         158.1560   138.4570   127.8890 h1         1 X4L       0.048200
     30 H7         159.2520   138.3260   123.2780 h1         1 X4L       0.059200
     31 H8         158.6910   139.6920   122.3430 h1         1 X4L       0.059200
     32 H10        159.8250   142.4750   127.3520 ha         1 X4L       0.115000
     33 H11        161.4640   140.8040   126.5410 ha         1 X4L       0.115000
     34 H12        152.5370   137.6230   122.9290 h4         1 X4L       0.038800
     35 H13        150.2220   135.7010   125.4180 hc         1 X4L       0.030700
     36 H14        150.8020   137.3170   125.0210 hc         1 X4L       0.030700
     37 H15        150.8770   136.0280   123.8190 hc         1 X4L       0.030700
     38 H17        151.8450   133.7820   125.7450 hc         1 X4L       0.030700
     39 H18        152.5630   134.0730   124.1580 hc         1 X4L       0.030700
     40 H19        153.5810   134.0550   125.6000 hc         1 X4L       0.030700
     41 H20        159.4080   136.2760   126.8160 h1         1 X4L       0.062700
     42 H21        159.0190   135.8240   130.9650 h1         1 X4L       0.037700
     43 H22        160.4200   136.5860   130.2090 h1         1 X4L       0.037700
     44 H23        158.4660   137.5840   125.4280 ha         1 X4L       0.136000
     45 H24        156.9970   141.0980   124.4500 ha         1 X4L       0.115000
     46 H25        160.8650   139.2830   124.6970 ha         1 X4L       0.115000
     47 H26        156.8280   135.5360   127.9810 hn         1 X4L       0.505000
     48 N16        157.1960   138.6930   123.3040 nu         1 X4L      -0.967200
     49 C02        152.3800   135.8590   125.3820 c3         1 X4L       0.036500
     50 H9         157.5910   142.6130   126.2950 ha         1 X4L       0.115000
     51 H16        152.4210   136.0770   126.4550 hc         1 X4L       0.054700
     52 H27        156.5470   139.0240   122.6080 hn         1 X4L       0.530000
@<TRIPOS>BOND
     1     1    15 1   
     2     1    16 1   
     3     1    25 1   
     4     1    26 1   
     5     2     3 1   
     6     2    16 1   
     7     2    27 1   
     8     3    15 1   
     9     3    28 1   
    10     3    29 1   
    11     4    17 2   
    12     4    23 1   
    13     4    48 1   
    14     5    18 1   
    15     5    30 1   
    16     5    31 1   
    17     5    48 1   
    18     6     7 ar  
    19     6    19 ar  
    20     6    50 1   
    21     7     8 ar  
    22     7    32 1   
    23     8    20 ar  
    24     8    33 1   
    25     9    12 1   
    26     9    24 2   
    27     9    34 1   
    28    10    35 1   
    29    10    36 1   
    30    10    37 1   
    31    10    49 1   
    32    11    38 1   
    33    11    39 1   
    34    11    40 1   
    35    11    49 1   
    36    12    13 2   
    37    12    49 1   
    38    13    21 1   
    39    13    23 1   
    40    14    17 1   
    41    14    21 2   
    42    14    22 1   
    43    15    22 1   
    44    15    41 1   
    45    16    42 1   
    46    16    43 1   
    47    17    44 1   
    48    18    19 ar  
    49    18    20 ar  
    50    19    45 1   
    51    20    46 1   
    52    22    47 1   
    53    23    24 1   
    54    48    52 1   
    55    49    51 1   
@<TRIPOS>SUBSTRUCTURE
     1 X4L         1 TEMP              0 ****  ****    0 ROOT
