@<TRIPOS>MOLECULE
X4M
   66    71     1     0     0
SMALL
No Charge or Current Charge


@<TRIPOS>ATOM
      1 C4          41.2760     8.2220    17.9560 cc         1 X4M       0.395400
      2 C5          39.7530     9.6240    17.3470 cd         1 X4M       0.089500
      3 C6          45.6960     9.3920    17.9220 ca         1 X4M       0.344300
      4 C7          39.0990     8.4770    17.7230 cc         1 X4M       0.179400
      5 C8          38.9530    10.7850    16.8620 c          1 X4M       0.524500
      6 C10         45.2200     6.5540    15.6010 c5         1 X4M      -0.071400
      7 C13         42.0960     5.4460    20.7940 c3         1 X4M       0.208600
      8 C15         44.6260     5.6770    17.7920 c5         1 X4M       0.222300
      9 C17         40.8090     5.0790    18.0910 c5         1 X4M       0.179300
     10 C20         39.8250     6.2060    18.5520 c5         1 X4M       0.298300
     11 C1          44.8400    10.3020    18.5600 ca         1 X4M      -0.224000
     12 C2          45.4030    11.2550    19.4230 ca         1 X4M       0.137900
     13 C3          47.4820    10.4070    18.9720 ca         1 X4M       0.151900
     14 C9          37.0880     9.3450    17.2480 cd         1 X4M       0.750800
     15 C11         46.0020     6.3750    17.9340 c5         1 X4M      -0.126400
     16 C12         43.4060     4.6560    15.6850 c3         1 X4M       0.226600
     17 C14         44.6970     5.2530    16.2980 c5         1 X4M      -0.070700
     18 C16         40.6460     4.9850    20.4240 c5         1 X4M       0.118300
     19 C18         45.9690     7.3520    16.7200 c5         1 X4M       0.190300
     20 C19         40.5600     4.0200    19.1940 c5         1 X4M       0.148300
     21 N21         46.7320    11.3110    19.6350 nb         1 X4M      -0.189000
     22 N22         47.0340     9.4580    18.1250 nb         1 X4M      -0.286000
     23 N23         41.1230     9.4610    17.5030 nd         1 X4M      -0.578000
     24 N24         37.7320     8.2920    17.6860 nc         1 X4M      -0.707100
     25 N25         40.0600     7.5860    18.1230 na         1 X4M      -0.209500
     26 N26         37.6140    10.5210    16.8560 ns         1 X4M      -0.456400
     27 N27         35.7770     9.2190    17.1880 nv         1 X4M      -1.047200
     28 O28         39.4040    11.8640    16.5030 o          1 X4M      -0.519000
     29 O31         42.3830     5.6620    15.7120 os         1 X4M      -0.594400
     30 O32         42.9950     4.3390    20.6030 os         1 X4M      -0.608400
     31 O33         39.8550     6.1390    20.0050 os         1 X4M      -0.446000
     32 O34         44.5990     4.4700    18.5880 os         1 X4M      -0.570400
     33 O35         40.4720     4.4680    16.8170 os         1 X4M      -0.560400
     34 O36         39.2710     3.3900    19.0720 oh         1 X4M      -0.685000
     35 O39         45.1030     8.4790    17.0600 os         1 X4M      -0.458300
     36 P40         40.8160     5.3270    15.4950 p5         1 X4M       1.139200
     37 P41         44.5460     4.5390    20.2060 p5         1 X4M       1.138200
     38 H1          42.2190     7.7490    18.1940 h5         1 X4M       0.067100
     39 H2          44.4090     7.1510    15.1680 hc         1 X4M       0.067700
     40 H3          45.8930     6.3090    14.7720 hc         1 X4M       0.067700
     41 H4          42.3850     6.3020    20.1690 h1         1 X4M       0.070200
     42 H5          42.1070     5.7810    21.8390 h1         1 X4M       0.070200
     43 H6          43.7820     6.3350    18.0250 h1         1 X4M       0.058700
     44 H7          41.8530     5.4060    18.0920 h1         1 X4M       0.059700
     45 H8          38.8140     5.9490    18.2090 h2         1 X4M       0.128700
     46 H9          43.7690    10.2690    18.3880 ha         1 X4M       0.163000
     47 H10         44.7870    11.9830    19.9480 h4         1 X4M       0.035100
     48 H11         48.5570    10.4500    19.1350 h5         1 X4M       0.042100
     49 H12         46.8330     5.6650    17.8480 hc         1 X4M       0.083700
     50 H13         46.1270     6.9040    18.8830 hc         1 X4M       0.083700
     51 H14         43.1090     3.7710    16.2630 h1         1 X4M       0.040700
     52 H15         43.6160     4.3450    14.6540 h1         1 X4M       0.040700
     53 H16         45.4490     4.4610    16.1900 hc         1 X4M       0.082700
     54 H17         40.1920     4.5330    21.3150 h1         1 X4M       0.084700
     55 H18         46.9580     7.6920    16.3820 h1         1 X4M       0.085700
     56 H19         41.3510     3.2580    19.2000 h1         1 X4M       0.068700
     57 H20         37.0080    11.2680    16.5590 hn         1 X4M       0.322500
     58 H21         35.4670     8.2640    17.3140 hn         1 X4M       0.503500
     59 H22         35.2970     9.7330    16.4600 hn         1 X4M       0.503500
     60 H23         41.0610     2.9780    15.0760 hs         1 X4M       0.294800
     61 H24         46.1950     3.3420    21.4470 hs         1 X4M       0.335800
     62 H25         39.1850     3.1570    18.1170 ho         1 X4M       0.510000
     63 S29         40.8380     3.8220    14.0430 sh         1 X4M      -0.469200
     64 S30         45.3040     2.6570    20.6920 sh         1 X4M      -0.503200
     65 O37         39.9380     6.4940    15.2240 o          1 X4M      -0.441000
     66 O38         45.2480     5.6600    20.8800 o          1 X4M      -0.499000
@<TRIPOS>BOND
     1     1    23 2   
     2     1    25 1   
     3     1    38 1   
     4     2     4 2   
     5     2     5 1   
     6     2    23 1   
     7     3    11 ar  
     8     3    22 ar  
     9     3    35 1   
    10     4    24 1   
    11     4    25 1   
    12     5    26 1   
    13     5    28 2   
    14     6    17 1   
    15     6    19 1   
    16     6    39 1   
    17     6    40 1   
    18     7    18 1   
    19     7    30 1   
    20     7    41 1   
    21     7    42 1   
    22     8    15 1   
    23     8    17 1   
    24     8    32 1   
    25     8    43 1   
    26     9    10 1   
    27     9    20 1   
    28     9    33 1   
    29     9    44 1   
    30    10    25 1   
    31    10    31 1   
    32    10    45 1   
    33    11    12 ar  
    34    11    46 1   
    35    12    21 ar  
    36    12    47 1   
    37    13    21 ar  
    38    13    22 ar  
    39    13    48 1   
    40    14    24 2   
    41    14    26 1   
    42    14    27 1   
    43    15    19 1   
    44    15    49 1   
    45    15    50 1   
    46    16    17 1   
    47    16    29 1   
    48    16    51 1   
    49    16    52 1   
    50    17    53 1   
    51    18    20 1   
    52    18    31 1   
    53    18    54 1   
    54    19    35 1   
    55    19    55 1   
    56    20    34 1   
    57    20    56 1   
    58    26    57 1   
    59    27    58 1   
    60    27    59 1   
    61    29    36 1   
    62    30    37 1   
    63    32    37 1   
    64    33    36 1   
    65    34    62 1   
    66    36    63 1   
    67    36    65 2   
    68    37    64 1   
    69    37    66 2   
    70    60    63 1   
    71    61    64 1   
@<TRIPOS>SUBSTRUCTURE
     1 X4M         1 TEMP              0 ****  ****    0 ROOT
