@<TRIPOS>MOLECULE
X4M
   66    71     1     0     0
SMALL
bcc


@<TRIPOS>ATOM
      1 C4          41.5990     7.8830    19.4090 cc         1 X4M       0.395400
      2 C5          40.5710     9.6060    18.7430 cd         1 X4M       0.154800
      3 C6          44.8250     9.3200    16.8110 ca         1 X4M       0.672600
      4 C7          39.7440     8.5420    18.4390 cc         1 X4M       0.164800
      5 C8          40.1340    10.9240    18.4260 c          1 X4M       0.667000
      6 C10         45.7960     5.9710    15.8140 c5         1 X4M      -0.071400
      7 C13         41.6800     3.8480    20.7800 c3         1 X4M       0.185400
      8 C15         44.8750     5.6610    18.0580 c5         1 X4M       0.199100
      9 C17         40.7520     5.1310    17.9560 c5         1 X4M       0.156100
     10 C20         39.9350     6.0820    18.8310 c5         1 X4M       0.245800
     11 C1          43.6730    10.0680    16.5440 ca         1 X4M      -0.372600
     12 C2          43.6890    11.3710    16.9730 ca         1 X4M       0.466200
     13 C3          45.7630    11.1150    17.8010 ca         1 X4M       0.677900
     14 C9          38.1250     9.7750    17.5740 cd         1 X4M       0.750800
     15 C11         45.9810     6.7050    18.0790 c5         1 X4M      -0.126400
     16 C12         43.5960     4.6640    16.0810 c3         1 X4M       0.203400
     17 C14         44.9520     5.0000    16.6680 c5         1 X4M      -0.070700
     18 C16         40.3830     4.1420    20.0490 c5         1 X4M       0.095100
     19 C18         45.9860     7.2310    16.6510 c5         1 X4M       0.167100
     20 C19         40.3870     3.7810    18.5530 c5         1 X4M       0.125100
     21 N21         44.7350    11.9150    17.6070 nb         1 X4M      -0.715000
     22 N22         45.8640     9.8420    17.4360 nb         1 X4M      -0.812000
     23 N23         41.7200     9.1710    19.3520 nd         1 X4M      -0.578000
     24 N24         38.5360     8.5650    17.8650 nc         1 X4M      -0.707100
     25 N25         40.4160     7.4350    18.8630 na         1 X4M      -0.230900
     26 N26         38.8680    10.8920    17.8260 ns         1 X4M      -0.523400
     27 N27         36.9120     9.9570    17.0340 nv         1 X4M      -0.936800
     28 O28         40.7050    11.9840    18.6150 o          1 X4M      -0.594500
     29 O31         42.8480     5.8820    15.9660 os         1 X4M      -0.571200
     30 O32         42.8060     4.1150    19.9380 os         1 X4M      -0.585200
     31 O33         40.0550     5.5320    20.1140 os         1 X4M      -0.399600
     32 O34         45.0410     4.6730    19.0920 os         1 X4M      -0.547200
     33 O35         40.4520     5.2080    16.5760 os         1 X4M      -0.537200
     34 O36         39.1120     3.4460    18.0840 oh         1 X4M      -0.562800
     35 O39         44.8450     8.0630    16.4010 os         1 X4M      -0.435100
     36 P40         41.3300     6.0700    15.5390 p5         1 X4M       1.368500
     37 P41         44.1870     4.7480    20.4360 p5         1 X4M       1.367500
     38 H1          42.3180     7.2110    19.8550 h5         1 X4M       0.067100
     39 H2          45.3590     6.1880    14.8380 hc         1 X4M       0.067700
     40 H3          46.7790     5.5370    15.6270 hc         1 X4M       0.067700
     41 H4          41.7220     4.4260    21.7060 h1         1 X4M       0.070200
     42 H5          41.7010     2.7880    21.0400 h1         1 X4M       0.070200
     43 H6          43.9120     6.1620    18.1800 h1         1 X4M       0.058700
     44 H7          41.8110     5.3160    18.1360 h1         1 X4M       0.059700
     45 H8          38.8960     6.1270    18.4890 h2         1 X4M       0.128700
     46 H9          42.8160     9.6340    16.0480 ha         1 X4M       0.181000
     47 H10         42.8310    12.0110    16.8100 h4         1 X4M       0.035100
     48 H11         46.6230    11.5330    18.3140 h5         1 X4M       0.042100
     49 H12         46.9430     6.2210    18.2690 hc         1 X4M       0.083700
     50 H13         45.8360     7.4700    18.8400 hc         1 X4M       0.083700
     51 H14         43.0730     3.9460    16.7190 h1         1 X4M       0.040700
     52 H15         43.7090     4.2150    15.0920 h1         1 X4M       0.040700
     53 H16         45.4790     4.0470    16.7650 hc         1 X4M       0.082700
     54 H17         39.6030     3.5780    20.5710 h1         1 X4M       0.084700
     55 H18         46.8990     7.7720    16.4010 h1         1 X4M       0.085700
     56 H19         41.1260     3.0080    18.3160 h1         1 X4M       0.068700
     57 H20         38.4810    11.7950    17.5790 hn         1 X4M       0.322500
     58 H21         36.4140     9.1440    16.7120 hn         1 X4M       0.448300
     59 H22         36.6480    10.8380    16.6270 hn         1 X4M       0.448300
     60 H23         41.1590     3.8280    14.1950 hs         1 X4M       0.294800
     61 H24         45.7670     4.0340    22.3410 hs         1 X4M       0.335800
     62 H25         38.8610     2.5930    18.4530 ho         1 X4M       0.411000
     63 S29         40.9800     5.0810    13.7500 sh         1 X4M      -0.469200
     64 S30         44.9880     3.2310    21.6040 sh         1 X4M      -0.503200
     65 O37         40.9980     7.5010    15.4100 o          1 X4M      -0.670300
     66 O38         44.1040     6.0710    21.0910 o          1 X4M      -0.728300
@<TRIPOS>BOND
     1     1    23 2   
     2     1    25 1   
     3     1    38 1   
     4     2     4 2   
     5     2     5 1   
     6     2    23 1   
     7     3    11 ar  
     8     3    22 ar  
     9     3    35 1   
    10     4    24 1   
    11     4    25 1   
    12     5    26 1   
    13     5    28 2   
    14     6    17 1   
    15     6    19 1   
    16     6    39 1   
    17     6    40 1   
    18     7    18 1   
    19     7    30 1   
    20     7    41 1   
    21     7    42 1   
    22     8    15 1   
    23     8    17 1   
    24     8    32 1   
    25     8    43 1   
    26     9    10 1   
    27     9    20 1   
    28     9    33 1   
    29     9    44 1   
    30    10    25 1   
    31    10    31 1   
    32    10    45 1   
    33    11    12 ar  
    34    11    46 1   
    35    12    21 ar  
    36    12    47 1   
    37    13    21 ar  
    38    13    22 ar  
    39    13    48 1   
    40    14    24 2   
    41    14    26 1   
    42    14    27 1   
    43    15    19 1   
    44    15    49 1   
    45    15    50 1   
    46    16    17 1   
    47    16    29 1   
    48    16    51 1   
    49    16    52 1   
    50    17    53 1   
    51    18    20 1   
    52    18    31 1   
    53    18    54 1   
    54    19    35 1   
    55    19    55 1   
    56    20    34 1   
    57    20    56 1   
    58    26    57 1   
    59    27    58 1   
    60    27    59 1   
    61    29    36 1   
    62    30    37 1   
    63    32    37 1   
    64    33    36 1   
    65    34    62 1   
    66    36    63 1   
    67    36    65 2   
    68    37    64 1   
    69    37    66 2   
    70    60    63 1   
    71    61    64 1   
@<TRIPOS>SUBSTRUCTURE
     1 X4M         1 TEMP              0 ****  ****    0 ROOT
