@<TRIPOS>MOLECULE
X4O
   39    40     1     0     0
SMALL
abcg2


@<TRIPOS>ATOM
      1 C10         16.7440    10.1670    11.7810 c          1 X4O       0.578100
      2 N12         18.7640     8.8030    12.1930 nu         1 X4O      -0.960200
      3 C13         18.6900     8.2780    13.4680 ca         1 X4O       0.315000
      4 C15         19.8280     7.4280    15.4410 ca         1 X4O      -0.098000
      5 C21         13.1220    10.6290    11.3270 c          1 X4O       0.572100
      6 C02         13.9830    11.3570    16.2130 ca         1 X4O       0.002100
      7 C03         14.1220    12.5070    15.4500 ca         1 X4O      -0.082000
      8 C04         14.2770    12.3810    14.0740 ca         1 X4O      -0.085000
      9 C05         14.2900    11.1290    13.4700 ca         1 X4O      -0.107300
     10 C06         14.1410     9.9890    14.2580 ca         1 X4O      -0.085000
     11 C07         13.9900    10.0950    15.6340 ca         1 X4O      -0.082000
     12 C08         14.4570    11.0130    11.9610 c3         1 X4O       0.102000
     13 C11         17.6050     8.9700    11.3630 c3         1 X4O       0.156800
     14 C14         19.8700     7.9340    14.1510 ca         1 X4O      -0.160500
     15 C16         18.5990     7.2680    16.0590 ca         1 X4O       0.112000
     16 C18         17.4200     7.5960    15.4250 ca         1 X4O      -0.098000
     17 C19         17.4650     8.0990    14.1280 ca         1 X4O      -0.160500
     18 F17         18.5570     6.7690    17.3300 f          1 X4O      -0.189000
     19 N09         15.4220    10.0060    11.5730 ns         1 X4O      -0.507900
     20 O20         17.2240    11.1970    12.2390 o          1 X4O      -0.568100
     21 O23         11.0410    11.3870    10.5560 oh         1 X4O      -0.436100
     22 O24         12.7700     9.4570    11.1640 o          1 X4O      -0.623100
     23 H1          19.6480     8.7180    11.7220 hn         1 X4O       0.491000
     24 H2          20.7380     7.1600    15.9620 ha         1 X4O       0.128500
     25 H3          14.1210    13.4820    15.9150 ha         1 X4O       0.134000
     26 H4          14.4010    13.2720    13.4700 ha         1 X4O       0.120500
     27 H5          14.1510     9.0080    13.8020 ha         1 X4O       0.120500
     28 H6          13.8830     9.2080    16.2430 ha         1 X4O       0.134000
     29 H7          14.7740    11.9820    11.5740 h1         1 X4O       0.086700
     30 H8          17.9420     9.1660    10.3440 h1         1 X4O       0.057200
     31 H9          16.9830     8.0670    11.3310 h1         1 X4O       0.057200
     32 H10         20.8250     8.0660    13.6570 ha         1 X4O       0.113000
     33 H11         16.4730     7.4640    15.9310 ha         1 X4O       0.128500
     34 H12         16.5340     8.3470    13.6410 ha         1 X4O       0.113000
     35 H13         15.0570     9.1060    11.2950 hn         1 X4O       0.337500
     36 H14         12.4900    12.6170    11.2170 hn         1 X4O       0.364500
     37 H15         10.9910    10.4110    10.6010 ho         1 X4O       0.477000
     38 N22         12.3390    11.6480    10.9780 ns         1 X4O      -0.356400
     39 BR01        13.7830    11.5140    18.1120 br         1 X4O      -0.100100
@<TRIPOS>BOND
     1     1    13 1   
     2     1    19 1   
     3     1    20 2   
     4     2     3 1   
     5     2    13 1   
     6     2    23 1   
     7     3    14 ar  
     8     3    17 ar  
     9     4    14 ar  
    10     4    15 ar  
    11     4    24 1   
    12     5    12 1   
    13     5    22 2   
    14     5    38 1   
    15     6     7 ar  
    16     6    11 ar  
    17     6    39 1   
    18     7     8 ar  
    19     7    25 1   
    20     8     9 ar  
    21     8    26 1   
    22     9    10 ar  
    23     9    12 1   
    24    10    11 ar  
    25    10    27 1   
    26    11    28 1   
    27    12    19 1   
    28    12    29 1   
    29    13    30 1   
    30    13    31 1   
    31    14    32 1   
    32    15    16 ar  
    33    15    18 1   
    34    16    17 ar  
    35    16    33 1   
    36    17    34 1   
    37    19    35 1   
    38    21    37 1   
    39    21    38 1   
    40    36    38 1   
@<TRIPOS>SUBSTRUCTURE
     1 X4O         1 TEMP              0 ****  ****    0 ROOT
