@<TRIPOS>MOLECULE
X4O
   39    40     1     0     0
SMALL
No Charge or Current Charge


@<TRIPOS>ATOM
      1 C10         17.0600    10.2780    11.1760 c          1 X4O       0.578100
      2 N12         18.7220     8.6410    12.2230 nu         1 X4O      -0.960200
      3 C13         18.0380     8.2240    13.3640 ca         1 X4O       0.315000
      4 C15         17.6950     8.3600    15.7750 ca         1 X4O      -0.098000
      5 C21         13.3120    10.2900    11.6890 c          1 X4O       0.572100
      6 C02         15.3440    11.6290    16.2300 ca         1 X4O       0.002100
      7 C03         15.6370    12.6230    15.2820 ca         1 X4O      -0.082000
      8 C04         15.4290    12.3720    13.9140 ca         1 X4O      -0.085000
      9 C05         14.9250    11.1270    13.4880 ca         1 X4O      -0.107300
     10 C06         14.6370    10.1330    14.4480 ca         1 X4O      -0.085000
     11 C07         14.8410    10.3860    15.8150 ca         1 X4O      -0.082000
     12 C08         14.7360    10.8430    11.9980 c3         1 X4O       0.102000
     13 C11         18.0540     9.0930    10.9580 c3         1 X4O       0.156800
     14 C14         18.3880     8.7560    14.6160 ca         1 X4O      -0.160500
     15 C16         16.6520     7.4240    15.6770 ca         1 X4O       0.112000
     16 C18         16.3000     6.8830    14.4300 ca         1 X4O      -0.098000
     17 C19         16.9940     7.2850    13.2730 ca         1 X4O      -0.160500
     18 F17         15.9840     7.0440    16.7880 f          1 X4O      -0.189000
     19 N09         15.7820     9.9090    11.5420 ns         1 X4O      -0.507900
     20 O20         17.3870    11.4540    11.0620 o          1 X4O      -0.568100
     21 O23         10.8940    10.6750    11.9010 oh         1 X4O      -0.436100
     22 O24         13.0970     9.1650    11.2460 o          1 X4O      -0.623100
     23 H1          19.5980     9.1270    12.4360 hn         1 X4O       0.491000
     24 H2          17.9600     8.7780    16.7430 ha         1 X4O       0.128500
     25 H3          16.0310    13.5840    15.6050 ha         1 X4O       0.134000
     26 H4          15.6710    13.1440    13.1870 ha         1 X4O       0.120500
     27 H5          14.2620     9.1600    14.1370 ha         1 X4O       0.120500
     28 H6          14.6180     9.6160    16.5490 ha         1 X4O       0.134000
     29 H7          14.8280    11.7810    11.4340 h1         1 X4O       0.086700
     30 H8          18.8060     9.4200    10.2270 h1         1 X4O       0.057200
     31 H9          17.4960     8.2630    10.5030 h1         1 X4O       0.057200
     32 H10         19.1900     9.4860    14.6930 ha         1 X4O       0.113000
     33 H11         15.4940     6.1570    14.3620 ha         1 X4O       0.128500
     34 H12         16.7270     6.8580    12.3110 ha         1 X4O       0.113000
     35 H13         15.5910     8.9160    11.6020 hn         1 X4O       0.337500
     36 H14         12.4220    12.0010    12.5100 hn         1 X4O       0.364500
     37 H15         11.0130     9.6980    11.7930 ho         1 X4O       0.477000
     38 N22         12.2590    11.1480    11.9750 ns         1 X4O      -0.356400
     39 Br01        15.6390    11.9630    18.0890 br         1 X4O      -0.100100
@<TRIPOS>BOND
     1     1    13 1   
     2     1    19 1   
     3     1    20 2   
     4     2     3 1   
     5     2    13 1   
     6     2    23 1   
     7     3    14 ar  
     8     3    17 ar  
     9     4    14 ar  
    10     4    15 ar  
    11     4    24 1   
    12     5    12 1   
    13     5    22 2   
    14     5    38 1   
    15     6     7 ar  
    16     6    11 ar  
    17     6    39 1   
    18     7     8 ar  
    19     7    25 1   
    20     8     9 ar  
    21     8    26 1   
    22     9    10 ar  
    23     9    12 1   
    24    10    11 ar  
    25    10    27 1   
    26    11    28 1   
    27    12    19 1   
    28    12    29 1   
    29    13    30 1   
    30    13    31 1   
    31    14    32 1   
    32    15    16 ar  
    33    15    18 1   
    34    16    17 ar  
    35    16    33 1   
    36    17    34 1   
    37    19    35 1   
    38    21    37 1   
    39    21    38 1   
    40    36    38 1   
@<TRIPOS>SUBSTRUCTURE
     1 X4O         1 TEMP              0 ****  ****    0 ROOT
