@<TRIPOS>MOLECULE
X4P
   15    15     1     0     0
SMALL
No Charge or Current Charge


@<TRIPOS>ATOM
      1 C1          17.4070    -0.9620    45.0790 c          1 X4P       0.614700
      2 C2          16.8640     0.1180    44.1680 ca         1 X4P      -0.108600
      3 C3          16.1660    -0.2260    42.9880 ca         1 X4P      -0.116000
      4 C4          15.6650     0.7860    42.1500 ca         1 X4P       0.344900
      5 C5          16.4810     2.4400    43.5370 ca         1 X4P       0.435000
      6 C6          17.0170     1.5000    44.4350 ca         1 X4P      -0.133000
      7 N1          18.0680    -0.5870    46.1960 nt         1 X4P      -0.597000
      8 N2          15.8160     2.1040    42.4120 nb         1 X4P      -0.646000
      9 O1          17.2710    -2.1510    44.8410 o          1 X4P      -0.588100
     10 Cl1         16.6590     4.1610    43.8470 cl         1 X4P      -0.163000
     11 H1          16.0070    -1.2650    42.7140 ha         1 X4P       0.150000
     12 H2          15.1260     0.5320    41.2380 h4         1 X4P       0.032100
     13 H3          17.5380     1.8600    45.3160 ha         1 X4P       0.138000
     14 H4          18.4340    -1.2980    46.8110 hn         1 X4P       0.318500
     15 H5          18.1920     0.3900    46.4120 hn         1 X4P       0.318500
@<TRIPOS>BOND
     1     1     2 1   
     2     1     7 1   
     3     1     9 2   
     4     2     3 ar  
     5     2     6 ar  
     6     3     4 ar  
     7     3    11 1   
     8     4     8 ar  
     9     4    12 1   
    10     5     6 ar  
    11     5     8 ar  
    12     5    10 1   
    13     6    13 1   
    14     7    14 1   
    15     7    15 1   
@<TRIPOS>SUBSTRUCTURE
     1 X4P         1 TEMP              0 ****  ****    0 ROOT
