@<TRIPOS>MOLECULE
X4Q
   52    55     1     0     0
SMALL
abcg2


@<TRIPOS>ATOM
      1 C10        159.5870   138.7110   127.7480 c5         1 X4Q      -0.133400
      2 N12        159.9810   137.4960   129.7840 n7         1 X4Q      -0.879400
      3 C13        160.2430   136.5880   128.6620 c5         1 X4Q       0.159800
      4 C15        157.3920   137.7650   123.8090 cc         1 X4Q       0.369000
      5 C17        159.0660   139.0150   122.5380 c3         1 X4Q       0.239100
      6 C20        158.4530   141.8340   125.0190 ca         1 X4Q      -0.107500
      7 C21        159.7090   141.9670   125.6030 ca         1 X4Q      -0.102000
      8 C22        160.7360   141.1200   125.2160 ca         1 X4Q      -0.107500
      9 C26        153.9920   137.5460   123.5420 cc         1 X4Q       0.412500
     10 C01        153.1950   135.0260   125.9540 c3         1 X4Q      -0.086100
     11 C03        151.6610   136.9390   125.3690 c3         1 X4Q      -0.086100
     12 C04        154.1140   137.0760   124.8580 cc         1 X4Q      -0.306800
     13 C05        155.4850   137.1050   125.0940 cd         1 X4Q       0.447500
     14 C07        157.5210   136.9720   126.0760 cd         1 X4Q       0.641900
     15 C09        159.5660   137.1980   127.4300 c5         1 X4Q       0.172500
     16 C11        159.5210   138.7860   129.2740 c5         1 X4Q       0.158800
     17 C14        158.1520   137.5110   124.9220 cd         1 X4Q      -0.323000
     18 C18        159.2710   140.0450   123.6210 ca         1 X4Q      -0.125300
     19 C19        158.2350   140.8750   124.0430 ca         1 X4Q      -0.099500
     20 C23        160.5240   140.1880   124.2060 ca         1 X4Q      -0.099500
     21 N06        156.2130   136.8280   126.1810 nc         1 X4Q      -0.761000
     22 N08        158.2530   136.6480   127.1850 nu         1 X4Q      -0.878100
     23 N24        156.0430   137.6500   123.9590 na         1 X4Q       0.059900
     24 N25        155.1510   137.8740   122.9850 nd         1 X4Q      -0.622100
     25 H1         160.4740   139.1790   127.3230 hc         1 X4Q       0.061200
     26 H2         158.7360   139.2040   127.2730 hc         1 X4Q       0.061200
     27 H3         159.3140   137.0950   130.4240 hn         1 X4Q       0.415000
     28 H5         159.8380   135.6020   128.8840 h1         1 X4Q       0.063700
     29 H6         161.3180   136.5560   128.4720 h1         1 X4Q       0.063700
     30 H7         159.9160   138.3290   122.5130 h1         1 X4Q       0.066700
     31 H8         159.0280   139.5080   121.5660 h1         1 X4Q       0.066700
     32 H10        159.8660   142.6710   126.4140 ha         1 X4Q       0.117000
     33 H11        161.7380   141.2720   125.5970 ha         1 X4Q       0.117000
     34 H12        153.0830   137.6510   122.9660 h4         1 X4Q       0.042800
     35 H13        152.4440   134.6340   126.6430 hc         1 X4Q       0.032700
     36 H14        153.1220   134.5200   124.9900 hc         1 X4Q       0.032700
     37 H15        154.1830   134.7650   126.3360 hc         1 X4Q       0.032700
     38 H17        150.9050   136.5430   126.0450 hc         1 X4Q       0.032700
     39 H18        151.5680   138.0250   125.3040 hc         1 X4Q       0.032700
     40 H19        151.4600   136.5910   124.3530 hc         1 X4Q       0.032700
     41 H20        160.2150   137.0490   126.5660 h1         1 X4Q       0.070700
     42 H21        160.1510   139.6080   129.6380 h1         1 X4Q       0.041200
     43 H22        158.5250   139.0590   129.6360 h1         1 X4Q       0.041200
     44 H23        159.2270   137.5550   124.8630 ha         1 X4Q       0.142000
     45 H24        157.2510   140.7510   123.6030 ha         1 X4Q       0.113500
     46 H25        161.3360   139.5420   123.8930 ha         1 X4Q       0.113500
     47 H26        157.6670   136.6430   128.0120 hn         1 X4Q       0.473000
     48 N16        157.8290   138.2400   122.6150 nu         1 X4Q      -0.901200
     49 C02        153.0710   136.5450   125.7910 c3         1 X4Q       0.030500
     50 H9         157.6380   142.4840   125.3150 ha         1 X4Q       0.117000
     51 H16        153.2710   136.9650   126.7840 hc         1 X4Q       0.053700
     52 H27        157.0710   138.6870   122.1150 hn         1 X4Q       0.490000
@<TRIPOS>BOND
     1     1    15 1   
     2     1    16 1   
     3     1    25 1   
     4     1    26 1   
     5     2     3 1   
     6     2    16 1   
     7     2    27 1   
     8     3    15 1   
     9     3    28 1   
    10     3    29 1   
    11     4    17 2   
    12     4    23 1   
    13     4    48 1   
    14     5    18 1   
    15     5    30 1   
    16     5    31 1   
    17     5    48 1   
    18     6     7 ar  
    19     6    19 ar  
    20     6    50 1   
    21     7     8 ar  
    22     7    32 1   
    23     8    20 ar  
    24     8    33 1   
    25     9    12 1   
    26     9    24 2   
    27     9    34 1   
    28    10    35 1   
    29    10    36 1   
    30    10    37 1   
    31    10    49 1   
    32    11    38 1   
    33    11    39 1   
    34    11    40 1   
    35    11    49 1   
    36    12    13 2   
    37    12    49 1   
    38    13    21 1   
    39    13    23 1   
    40    14    17 1   
    41    14    21 2   
    42    14    22 1   
    43    15    22 1   
    44    15    41 1   
    45    16    42 1   
    46    16    43 1   
    47    17    44 1   
    48    18    19 ar  
    49    18    20 ar  
    50    19    45 1   
    51    20    46 1   
    52    22    47 1   
    53    23    24 1   
    54    48    52 1   
    55    49    51 1   
@<TRIPOS>SUBSTRUCTURE
     1 X4Q         1 TEMP              0 ****  ****    0 ROOT
