@<TRIPOS>MOLECULE
X4Q
   52    55     1     0     0
SMALL
No Charge or Current Charge


@<TRIPOS>ATOM
      1 C10        159.7440   138.6580   127.8750 c5         1 X4Q      -0.133400
      2 N12        160.1890   137.5670   129.9110 n7         1 X4Q      -0.879400
      3 C13        160.0450   136.4540   128.9250 c5         1 X4Q       0.159800
      4 C15        157.4800   137.7920   123.7890 cc         1 X4Q       0.369000
      5 C17        159.2000   139.0800   122.4200 c3         1 X4Q       0.239100
      6 C20        158.3960   142.2980   124.3650 ca         1 X4Q      -0.107500
      7 C21        159.4690   142.3560   125.2710 ca         1 X4Q      -0.102000
      8 C22        160.4590   141.3590   125.2480 ca         1 X4Q      -0.107500
      9 C26        154.0570   137.1200   123.5850 cc         1 X4Q       0.412500
     10 C01        152.6330   134.8590   125.3380 c3         1 X4Q      -0.086100
     11 C03        152.1340   137.2340   126.1360 c3         1 X4Q      -0.086100
     12 C04        154.2810   136.7210   124.9170 cc         1 X4Q      -0.306800
     13 C05        155.6050   136.9370   125.1140 cd         1 X4Q       0.447500
     14 C07        157.6250   137.0440   126.0960 cd         1 X4Q       0.641900
     15 C09        159.7300   137.1350   127.5390 c5         1 X4Q       0.172500
     16 C11        159.3570   138.6610   129.3730 c5         1 X4Q       0.158800
     17 C14        158.2360   137.5570   124.9190 cd         1 X4Q      -0.323000
     18 C18        159.2990   140.2360   123.4140 ca         1 X4Q      -0.125300
     19 C19        158.3120   141.2440   123.4390 ca         1 X4Q      -0.099500
     20 C23        160.3760   140.3050   124.3220 ca         1 X4Q      -0.099500
     21 N06        156.3630   136.7500   126.1780 nc         1 X4Q      -0.761000
     22 N08        158.3010   136.8370   127.2360 nu         1 X4Q      -0.878100
     23 N24        156.1240   137.4500   123.9160 na         1 X4Q       0.059900
     24 N25        155.1230   137.5670   122.9380 nd         1 X4Q      -0.622100
     25 H1         160.7500   139.0700   127.7390 hc         1 X4Q       0.061200
     26 H2         159.0690   139.2610   127.2570 hc         1 X4Q       0.061200
     27 H3         159.8570   137.2760   130.8410 hn         1 X4Q       0.415000
     28 H5         159.2430   135.7640   129.2270 h1         1 X4Q       0.063700
     29 H6         160.9690   135.8610   128.8740 h1         1 X4Q       0.063700
     30 H7         160.0630   138.4100   122.5420 h1         1 X4Q       0.066700
     31 H8         159.2480   139.4850   121.3990 h1         1 X4Q       0.066700
     32 H10        159.5330   143.1710   125.9890 ha         1 X4Q       0.117000
     33 H11        161.2900   141.4030   125.9490 ha         1 X4Q       0.117000
     34 H12        153.1130   137.0970   123.0570 h4         1 X4Q       0.042800
     35 H13        151.9210   134.4450   126.0620 hc         1 X4Q       0.032700
     36 H14        152.1070   135.0100   124.3870 hc         1 X4Q       0.032700
     37 H15        153.4260   134.1180   125.1780 hc         1 X4Q       0.032700
     38 H17        151.4150   136.8550   126.8720 hc         1 X4Q       0.032700
     39 H18        152.5770   138.1540   126.5360 hc         1 X4Q       0.032700
     40 H19        151.5870   137.4850   125.2190 hc         1 X4Q       0.032700
     41 H20        160.4280   136.8480   126.7390 h1         1 X4Q       0.070700
     42 H21        159.5750   139.6220   129.8600 h1         1 X4Q       0.041200
     43 H22        158.2870   138.4460   129.5090 h1         1 X4Q       0.041200
     44 H23        159.2910   137.7790   124.9160 ha         1 X4Q       0.142000
     45 H24        157.4760   141.2050   122.7450 ha         1 X4Q       0.113500
     46 H25        161.1480   139.5380   124.3160 ha         1 X4Q       0.113500
     47 H26        157.6720   136.5190   127.9640 hn         1 X4Q       0.473000
     48 N16        157.9490   138.3240   122.6050 nu         1 X4Q      -0.901200
     49 C02        153.2300   136.1840   125.8570 c3         1 X4Q       0.030500
     50 H9         157.6290   143.0700   124.3820 ha         1 X4Q       0.117000
     51 H16        153.7090   135.9610   126.8190 hc         1 X4Q       0.053700
     52 H27        157.2100   138.4530   121.9100 hn         1 X4Q       0.490000
@<TRIPOS>BOND
     1     1    15 1   
     2     1    16 1   
     3     1    25 1   
     4     1    26 1   
     5     2     3 1   
     6     2    16 1   
     7     2    27 1   
     8     3    15 1   
     9     3    28 1   
    10     3    29 1   
    11     4    17 2   
    12     4    23 1   
    13     4    48 1   
    14     5    18 1   
    15     5    30 1   
    16     5    31 1   
    17     5    48 1   
    18     6     7 ar  
    19     6    19 ar  
    20     6    50 1   
    21     7     8 ar  
    22     7    32 1   
    23     8    20 ar  
    24     8    33 1   
    25     9    12 1   
    26     9    24 2   
    27     9    34 1   
    28    10    35 1   
    29    10    36 1   
    30    10    37 1   
    31    10    49 1   
    32    11    38 1   
    33    11    39 1   
    34    11    40 1   
    35    11    49 1   
    36    12    13 2   
    37    12    49 1   
    38    13    21 1   
    39    13    23 1   
    40    14    17 1   
    41    14    21 2   
    42    14    22 1   
    43    15    22 1   
    44    15    41 1   
    45    16    42 1   
    46    16    43 1   
    47    17    44 1   
    48    18    19 ar  
    49    18    20 ar  
    50    19    45 1   
    51    20    46 1   
    52    22    47 1   
    53    23    24 1   
    54    48    52 1   
    55    49    51 1   
@<TRIPOS>SUBSTRUCTURE
     1 X4Q         1 TEMP              0 ****  ****    0 ROOT
