@<TRIPOS>MOLECULE
X4S
   71    74     1     0     0
SMALL
abcg2


@<TRIPOS>ATOM
      1 O21         -5.9890     2.3520     0.9620 oh         1 X4S      -0.698000
      2 C21         -7.1310     1.6170     0.6240 c6         1 X4S       0.158300
      3 C31         -7.9960     1.4680     1.8660 c6         1 X4S       0.182300
      4 O31         -8.4010     2.7450     2.2860 oh         1 X4S      -0.640000
      5 C41         -9.1840     0.5670     1.5470 c6         1 X4S       0.093300
      6 O41         -9.8960     0.3630     2.7460 oh         1 X4S      -0.721000
      7 C51         -8.6900    -0.7560     0.9720 c6         1 X4S       0.113600
      8 O51         -7.8950    -0.5420    -0.1790 os         1 X4S      -0.413000
      9 C11         -6.7560     0.2170     0.1170 c6         1 X4S       0.248300
     10 S42         -5.7550     0.3530    -1.3880 ss         1 X4S      -0.360000
     11 C42         -4.3050    -0.6510    -0.9390 c6         1 X4S       0.029300
     12 C32         -3.5360    -1.0040    -2.2040 c6         1 X4S       0.199300
     13 O32         -4.3560    -1.7770    -3.0350 oh         1 X4S      -0.637000
     14 C22         -2.2560    -1.7510    -1.8200 c6         1 X4S       0.113300
     15 O22         -1.5140    -1.9250    -2.9970 oh         1 X4S      -0.723000
     16 C52         -3.3880     0.1210     0.0020 c6         1 X4S       0.141600
     17 O52         -2.2560    -0.6520     0.3420 os         1 X4S      -0.416000
     18 C12         -1.4680    -0.9460    -0.7790 c6         1 X4S       0.259300
     19 S43         -0.0560    -1.9340    -0.2400 ss         1 X4S      -0.372000
     20 C43          1.1400    -0.6370     0.2010 c6         1 X4S       0.033300
     21 C33          2.0950    -1.1760     1.2580 c6         1 X4S       0.199300
     22 O33          1.3650    -1.4540     2.4210 oh         1 X4S      -0.636000
     23 C23          3.1900    -0.1390     1.5090 c6         1 X4S       0.111300
     24 O23          4.1140    -0.7110     2.3930 oh         1 X4S      -0.724000
     25 C53          1.9160    -0.1990    -1.0360 c6         1 X4S       0.146600
     26 O53          2.9030     0.7610    -0.7120 os         1 X4S      -0.413000
     27 C13          3.8510     0.2460     0.1820 c6         1 X4S       0.256300
     28 S13          5.1150     1.5120     0.4700 ss         1 X4S      -0.358000
     29 C44          6.5620     0.7700    -0.3450 c6         1 X4S       0.024300
     30 C54          7.1410    -0.3590     0.5010 c6         1 X4S       0.165600
     31 O54          8.2870    -0.9020    -0.1100 os         1 X4S      -0.474000
     32 C14          9.3300     0.0400    -0.2150 c6         1 X4S       0.362300
     33 O14         10.4150    -0.5690    -0.8070 oh         1 X4S      -0.703000
     34 C24          8.8890     1.2060    -1.0990 c6         1 X4S       0.106300
     35 O24          9.8690     2.2130    -1.1450 oh         1 X4S      -0.725000
     36 C34          7.6210     1.8460    -0.5360 c6         1 X4S       0.197300
     37 O34          7.1130     2.8370    -1.3870 oh         1 X4S      -0.698000
     38 HO21        -5.4760     2.4830     0.1550 ho         1 X4S       0.516000
     39 H21         -7.7220     2.1190    -0.1570 h1         1 X4S       0.063700
     40 H31         -7.3910     0.9680     2.6420 h1         1 X4S       0.052700
     41 HO31        -8.9840     2.6350     3.0450 ho         1 X4S       0.458000
     42 H41         -9.8090     1.0710     0.7970 h1         1 X4S       0.056700
     43 HO41       -10.7810     0.0540     2.5310 ho         1 X4S       0.513000
     44 H51         -8.1250    -1.3030     1.7400 h1         1 X4S       0.059200
     45 H51A        -9.5300    -1.3810     0.6640 h1         1 X4S       0.059200
     46 H11         -6.1430    -0.2830     0.8820 h2         1 X4S       0.060700
     47 H42         -4.6570    -1.5670    -0.4560 h1         1 X4S       0.099700
     48 H32         -3.2350    -0.0670    -2.7020 h1         1 X4S       0.048700
     49 HO32        -3.8830    -1.9440    -3.8570 ho         1 X4S       0.463000
     50 H22         -2.5450    -2.7150    -1.3710 h1         1 X4S       0.068700
     51 HO22        -0.7450    -2.4720    -2.8000 ho         1 X4S       0.525000
     52 H52         -3.0930     1.0680    -0.4720 h1         1 X4S       0.064700
     53 H52A        -3.8930     0.3620     0.9360 h1         1 X4S       0.064700
     54 H12         -1.0990    -0.0230    -1.2490 h2         1 X4S       0.061700
     55 H43          0.5850     0.2070     0.6190 h1         1 X4S       0.103700
     56 H33          2.5800    -2.0850     0.8670 h1         1 X4S       0.046700
     57 HO33         1.9570    -1.8660     3.0590 ho         1 X4S       0.462000
     58 H23          2.7210     0.7620     1.9330 h1         1 X4S       0.069700
     59 HO23         4.7560    -0.0330     2.6350 ho         1 X4S       0.524000
     60 H53          2.3680    -1.0760    -1.5180 h1         1 X4S       0.062200
     61 H53A         1.2490     0.2710    -1.7600 h1         1 X4S       0.062200
     62 H13          4.3490    -0.6380    -0.2440 h2         1 X4S       0.059700
     63 H44          6.2490     0.3880    -1.3220 h1         1 X4S       0.100700
     64 H54          7.3670     0.0220     1.5070 h1         1 X4S       0.059700
     65 H54A         6.4220    -1.1710     0.6120 h1         1 X4S       0.059700
     66 H14          9.5760     0.4230     0.7910 h2         1 X4S       0.030700
     67 HO14        10.9090    -1.0650    -0.1440 ho         1 X4S       0.524000
     68 H24          8.6660     0.8120    -2.1020 h1         1 X4S       0.070700
     69 HO24        10.6110     1.9000    -1.6720 ho         1 X4S       0.526000
     70 H34          7.8690     2.2650     0.4540 h1         1 X4S       0.048700
     71 HO34         7.7960     3.5040    -1.5140 ho         1 X4S       0.524000
@<TRIPOS>BOND
     1     1     2 1   
     2     1    38 1   
     3     2     3 1   
     4     2     9 1   
     5     2    39 1   
     6     3     4 1   
     7     3     5 1   
     8     3    40 1   
     9     4    41 1   
    10     5     6 1   
    11     5     7 1   
    12     5    42 1   
    13     6    43 1   
    14     7     8 1   
    15     7    44 1   
    16     7    45 1   
    17     8     9 1   
    18     9    10 1   
    19     9    46 1   
    20    10    11 1   
    21    11    12 1   
    22    11    16 1   
    23    11    47 1   
    24    12    13 1   
    25    12    14 1   
    26    12    48 1   
    27    13    49 1   
    28    14    15 1   
    29    14    18 1   
    30    14    50 1   
    31    15    51 1   
    32    16    17 1   
    33    16    52 1   
    34    16    53 1   
    35    17    18 1   
    36    18    19 1   
    37    18    54 1   
    38    19    20 1   
    39    20    21 1   
    40    20    25 1   
    41    20    55 1   
    42    21    22 1   
    43    21    23 1   
    44    21    56 1   
    45    22    57 1   
    46    23    24 1   
    47    23    27 1   
    48    23    58 1   
    49    24    59 1   
    50    25    26 1   
    51    25    60 1   
    52    25    61 1   
    53    26    27 1   
    54    27    28 1   
    55    27    62 1   
    56    28    29 1   
    57    29    30 1   
    58    29    36 1   
    59    29    63 1   
    60    30    31 1   
    61    30    64 1   
    62    30    65 1   
    63    31    32 1   
    64    32    33 1   
    65    32    34 1   
    66    32    66 1   
    67    33    67 1   
    68    34    35 1   
    69    34    36 1   
    70    34    68 1   
    71    35    69 1   
    72    36    37 1   
    73    36    70 1   
    74    37    71 1   
@<TRIPOS>SUBSTRUCTURE
     1 X4S         1 TEMP              0 ****  ****    0 ROOT
