@<TRIPOS>MOLECULE
X4S
   71    74     1     0     0
SMALL
No Charge or Current Charge


@<TRIPOS>ATOM
      1 O21         -6.0050     3.5710    -1.0410 oh         1 X4S      -0.698000
      2 C21         -6.6460     2.4250    -0.4270 c6         1 X4S       0.158300
      3 C31         -7.2830     2.7950     0.9550 c6         1 X4S       0.182300
      4 O31         -8.3230     3.7830     0.8300 oh         1 X4S      -0.640000
      5 C41         -7.8760     1.5290     1.6450 c6         1 X4S       0.093300
      6 O41         -8.3980     1.8680     2.9480 oh         1 X4S      -0.721000
      7 C51         -6.7820     0.4300     1.7360 c6         1 X4S       0.113600
      8 O51         -6.2710     0.1390     0.4170 os         1 X4S      -0.413000
      9 C11         -5.6250     1.2570    -0.2240 c6         1 X4S       0.248300
     10 S42         -4.8990     0.6670    -1.8230 ss         1 X4S      -0.360000
     11 C42         -3.7940    -0.7000    -1.2030 c6         1 X4S       0.029300
     12 C32         -3.3080    -1.6430    -2.3440 c6         1 X4S       0.199300
     13 O32         -4.4080    -2.2880    -3.0020 oh         1 X4S      -0.637000
     14 C22         -2.3380    -2.7310    -1.7960 c6         1 X4S       0.113300
     15 O22         -1.8600    -3.5680    -2.8770 oh         1 X4S      -0.723000
     16 C52         -2.5630    -0.1460    -0.4350 c6         1 X4S       0.141600
     17 O52         -1.7220    -1.2250     0.0260 os         1 X4S      -0.416000
     18 C12         -1.1730    -2.0380    -1.0270 c6         1 X4S       0.259300
     19 S43         -0.0040    -3.2600    -0.2740 ss         1 X4S      -0.372000
     20 C43          1.1620    -2.1040     0.6090 c6         1 X4S       0.033300
     21 C33          2.0760    -2.8410     1.6340 c6         1 X4S       0.199300
     22 O33          1.3080    -3.4890     2.6590 oh         1 X4S      -0.636000
     23 C23          3.0770    -1.8530     2.3040 c6         1 X4S       0.111300
     24 O23          3.9480    -2.5650     3.2170 oh         1 X4S      -0.724000
     25 C53          2.0480    -1.3030    -0.3830 c6         1 X4S       0.146600
     26 O53          2.9450    -0.4230     0.3280 os         1 X4S      -0.413000
     27 C13          3.8720    -1.1010     1.1950 c6         1 X4S       0.256300
     28 S13          5.0410     0.1520     1.8970 ss         1 X4S      -0.358000
     29 C44          5.7180     0.8950     0.3260 c6         1 X4S       0.024300
     30 C54          6.6230    -0.1070    -0.4490 c6         1 X4S       0.165600
     31 O54          7.1540     0.4970    -1.6520 os         1 X4S      -0.474000
     32 C14          7.9670     1.6430    -1.4060 c6         1 X4S       0.362300
     33 O14          8.4290     2.0420    -2.6790 oh         1 X4S      -0.703000
     34 C24          7.1030     2.7640    -0.7490 c6         1 X4S       0.106300
     35 O24          7.8610     3.9770    -0.5110 oh         1 X4S      -0.725000
     36 C34          6.5070     2.2170     0.5790 c6         1 X4S       0.197300
     37 O34          5.6790     3.2330     1.1660 oh         1 X4S      -0.698000
     38 HO21        -5.6590     3.2670    -1.9120 ho         1 X4S       0.516000
     39 H21         -7.4490     2.0540    -1.0810 h1         1 X4S       0.063700
     40 H31         -6.4820     3.1850     1.6000 h1         1 X4S       0.052700
     41 HO31        -8.8200     3.7180     1.6770 ho         1 X4S       0.458000
     42 H41         -8.6860     1.1400     1.0090 h1         1 X4S       0.056700
     43 HO41        -8.8660     1.0710     3.2980 ho         1 X4S       0.513000
     44 H51         -5.9560     0.7570     2.3840 h1         1 X4S       0.059200
     45 H51A        -7.2070    -0.4920     2.1580 h1         1 X4S       0.059200
     46 H11         -4.7900     1.6070     0.4000 h2         1 X4S       0.060700
     47 H42         -4.3880    -1.3040    -0.5030 h1         1 X4S       0.099700
     48 H32         -2.7540    -1.0320    -3.0730 h1         1 X4S       0.048700
     49 HO32        -3.9940    -3.0420    -3.4830 ho         1 X4S       0.463000
     50 H22         -2.8900    -3.3450    -1.0680 h1         1 X4S       0.068700
     51 HO22        -1.2020    -4.1910    -2.4860 ho         1 X4S       0.525000
     52 H52         -1.9760     0.5210    -1.0840 h1         1 X4S       0.064700
     53 H52A        -2.8920     0.4350     0.4370 h1         1 X4S       0.064700
     54 H12         -0.5910    -1.4110    -1.7190 h2         1 X4S       0.061700
     55 H43          0.5460    -1.3870     1.1690 h1         1 X4S       0.103700
     56 H33          2.6600    -3.5940     1.0840 h1         1 X4S       0.046700
     57 HO33         1.9590    -3.6670     3.3740 ho         1 X4S       0.462000
     58 H23          2.4950    -1.1000     2.8570 h1         1 X4S       0.069700
     59 HO23         4.5990    -1.9080     3.5630 ho         1 X4S       0.524000
     60 H53          2.6350    -1.9890    -1.0110 h1         1 X4S       0.062200
     61 H53A         1.4170    -0.6940    -1.0450 h1         1 X4S       0.062200
     62 H13          4.4710    -1.8180     0.6150 h2         1 X4S       0.059700
     63 H44          4.8580     1.1370    -0.3130 h1         1 X4S       0.100700
     64 H54          7.4570    -0.4370     0.1890 h1         1 X4S       0.059700
     65 H54A         6.0440    -0.9960    -0.7330 h1         1 X4S       0.059700
     66 H14          8.8150     1.3730    -0.7590 h2         1 X4S       0.030700
     67 HO14         8.2290     1.2590    -3.2390 ho         1 X4S       0.524000
     68 H24          6.2680     2.9770    -1.4340 h1         1 X4S       0.070700
     69 HO24         8.4000     4.1190    -1.3280 ho         1 X4S       0.526000
     70 H34          7.3430     1.9870     1.2570 h1         1 X4S       0.048700
     71 HO34         6.1680     4.0710     0.9850 ho         1 X4S       0.524000
@<TRIPOS>BOND
     1     1     2 1   
     2     1    38 1   
     3     2     3 1   
     4     2     9 1   
     5     2    39 1   
     6     3     4 1   
     7     3     5 1   
     8     3    40 1   
     9     4    41 1   
    10     5     6 1   
    11     5     7 1   
    12     5    42 1   
    13     6    43 1   
    14     7     8 1   
    15     7    44 1   
    16     7    45 1   
    17     8     9 1   
    18     9    10 1   
    19     9    46 1   
    20    10    11 1   
    21    11    12 1   
    22    11    16 1   
    23    11    47 1   
    24    12    13 1   
    25    12    14 1   
    26    12    48 1   
    27    13    49 1   
    28    14    15 1   
    29    14    18 1   
    30    14    50 1   
    31    15    51 1   
    32    16    17 1   
    33    16    52 1   
    34    16    53 1   
    35    17    18 1   
    36    18    19 1   
    37    18    54 1   
    38    19    20 1   
    39    20    21 1   
    40    20    25 1   
    41    20    55 1   
    42    21    22 1   
    43    21    23 1   
    44    21    56 1   
    45    22    57 1   
    46    23    24 1   
    47    23    27 1   
    48    23    58 1   
    49    24    59 1   
    50    25    26 1   
    51    25    60 1   
    52    25    61 1   
    53    26    27 1   
    54    27    28 1   
    55    27    62 1   
    56    28    29 1   
    57    29    30 1   
    58    29    36 1   
    59    29    63 1   
    60    30    31 1   
    61    30    64 1   
    62    30    65 1   
    63    31    32 1   
    64    32    33 1   
    65    32    34 1   
    66    32    66 1   
    67    33    67 1   
    68    34    35 1   
    69    34    36 1   
    70    34    68 1   
    71    35    69 1   
    72    36    37 1   
    73    36    70 1   
    74    37    71 1   
@<TRIPOS>SUBSTRUCTURE
     1 X4S         1 TEMP              0 ****  ****    0 ROOT
