@<TRIPOS>MOLECULE
X4T
   39    40     1     0     0
SMALL
No Charge or Current Charge


@<TRIPOS>ATOM
      1 C13         17.2550     8.2560    12.0770 c3         1 X4T       0.137800
      2 C15         15.4820     6.9380    13.4400 ca         1 X4T       0.291000
      3 C17         14.8640     7.4360    15.7490 ca         1 X4T      -0.072000
      4 C20         14.3710     6.0850    13.3370 ca         1 X4T      -0.173500
      5 C22         14.0320    11.5060    14.4020 ca         1 X4T      -0.084000
      6 C02         12.4970    10.2390    15.8030 ca         1 X4T      -0.000900
      7 C03         12.1750     9.4180    14.7110 ca         1 X4T      -0.084000
      8 C04         12.7860     9.6360    13.4650 ca         1 X4T      -0.084000
      9 C05         13.7160    10.6850    13.3010 ca         1 X4T      -0.108300
     10 C06         14.4110    10.8960    11.9560 c3         1 X4T       0.102000
     11 C07         13.3860    11.0540    10.7930 c          1 X4T       0.572100
     12 C12         16.5970     9.6620    12.2440 c          1 X4T       0.567100
     13 C16         15.7270     7.6100    14.6520 ca         1 X4T      -0.173500
     14 C18         13.7530     6.5820    15.6370 ca         1 X4T      -0.156000
     15 C19         13.5060     5.9060    14.4310 ca         1 X4T      -0.072000
     16 C23         13.4230    11.2830    15.6500 ca         1 X4T      -0.084000
     17 N08         12.5440    12.1550    10.8820 ns         1 X4T      -0.359400
     18 N11         15.3340     9.7740    11.7070 ns         1 X4T      -0.495900
     19 N14         16.3150     7.1060    12.3300 nu         1 X4T      -0.967200
     20 O09         11.4360    12.3000     9.9630 oh         1 X4T      -0.438100
     21 O10         13.2820    10.2650     9.8590 o          1 X4T      -0.623100
     22 O21         17.1370    10.5900    12.8350 o          1 X4T      -0.597100
     23 Br01        11.6870     9.9210    17.5050 br         1 X4T      -0.105100
     24 H1          18.1050     8.2140    12.7710 h1         1 X4T       0.083200
     25 H2          17.6570     8.2040    11.0550 h1         1 X4T       0.083200
     26 H3          15.0540     7.9630    16.6810 ha         1 X4T       0.114500
     27 H4          14.1720     5.5620    12.4050 ha         1 X4T       0.116500
     28 H5          14.7590    12.3080    14.2970 ha         1 X4T       0.124000
     29 H6          11.4640     8.6040    14.8320 ha         1 X4T       0.134000
     30 H7          12.5440     8.9790    12.6320 ha         1 X4T       0.124000
     31 H8          14.9890    11.8290    11.9850 h1         1 X4T       0.090700
     32 H9          16.5830     8.2690    14.7540 ha         1 X4T       0.116500
     33 H10         13.0840     6.4480    16.4840 ha         1 X4T       0.116000
     34 H11         12.6450     5.2460    14.3430 ha         1 X4T       0.114500
     35 H12         13.6760    11.9150    16.4980 ha         1 X4T       0.134000
     36 H13         12.5020    12.7010    11.7430 hn         1 X4T       0.364500
     37 H14         14.9680     8.9400    11.2620 hn         1 X4T       0.338500
     38 H15         16.1290     6.4770    11.5440 hn         1 X4T       0.475000
     39 H16         11.4180    11.4200     9.5110 ho         1 X4T       0.477000
@<TRIPOS>BOND
     1     1    12 1   
     2     1    19 1   
     3     1    24 1   
     4     1    25 1   
     5     2     4 ar  
     6     2    13 ar  
     7     2    19 1   
     8     3    13 ar  
     9     3    14 ar  
    10     3    26 1   
    11     4    15 ar  
    12     4    27 1   
    13     5     9 ar  
    14     5    16 ar  
    15     5    28 1   
    16     6     7 ar  
    17     6    16 ar  
    18     6    23 1   
    19     7     8 ar  
    20     7    29 1   
    21     8     9 ar  
    22     8    30 1   
    23     9    10 1   
    24    10    11 1   
    25    10    18 1   
    26    10    31 1   
    27    11    17 1   
    28    11    21 2   
    29    12    18 1   
    30    12    22 2   
    31    13    32 1   
    32    14    15 ar  
    33    14    33 1   
    34    15    34 1   
    35    16    35 1   
    36    17    20 1   
    37    17    36 1   
    38    18    37 1   
    39    19    38 1   
    40    20    39 1   
@<TRIPOS>SUBSTRUCTURE
     1 X4T         1 TEMP              0 ****  ****    0 ROOT
