@<TRIPOS>MOLECULE
X4U
   59    61     1     0     0
SMALL
No Charge or Current Charge


@<TRIPOS>ATOM
      1 C01         34.4920   -57.5010    38.3990 ca         1 X4U      -0.115000
      2 C02         34.7030   -56.5360    37.4010 ca         1 X4U      -0.099000
      3 C03         35.1800   -55.2590    37.7470 ca         1 X4U      -0.107000
      4 C04         35.4490   -54.9290    39.0930 ca         1 X4U       0.301000
      5 C05         35.2400   -55.9120    40.0840 ca         1 X4U      -0.107000
      6 C06         34.7620   -57.1890    39.7410 ca         1 X4U      -0.099000
      7 C08         36.9310   -53.5360    40.4790 ca         1 X4U       0.296000
      8 C09         36.6770   -52.6780    41.5710 ca         1 X4U      -0.093000
      9 C10         37.6010   -52.5470    42.6210 ca         1 X4U      -0.103000
     10 C11         38.8010   -53.2750    42.5960 ca         1 X4U      -0.097000
     11 C12         39.0750   -54.1310    41.5170 ca         1 X4U      -0.099000
     12 C13         38.1530   -54.2670    40.4630 ca         1 X4U       0.133000
     13 C15         35.4490   -52.4720    38.8300 ca         1 X4U       0.399900
     14 C17         33.6860   -51.3540    37.8670 ca         1 X4U       0.181400
     15 C18         34.5030   -50.2250    37.6700 ca         1 X4U      -0.318600
     16 C19         35.8360   -50.3250    38.1090 ca         1 X4U       0.181400
     17 C21         34.0120   -48.9650    37.0310 c          1 X4U       0.631700
     18 C24         32.0380   -47.8180    35.9900 c3         1 X4U       0.102000
     19 C25         30.5630   -48.1250    35.6680 c3         1 X4U      -0.094400
     20 C26         29.8380   -46.9430    34.9890 c3         1 X4U      -0.075400
     21 C27         28.3560   -47.2500    34.6680 c3         1 X4U      -0.073400
     22 C28         27.6180   -46.1230    33.9070 c3         1 X4U      -0.075400
     23 C29         27.4520   -44.8080    34.7110 c3         1 X4U      -0.153400
     24 C30         26.5990   -43.7850    33.9530 c          1 X4U       0.574100
     25 N07         35.9500   -53.6460    39.4470 nh         1 X4U      -0.825900
     26 N16         34.1550   -52.4740    38.4460 nb         1 X4U      -0.222500
     27 N20         36.3110   -51.4430    38.6880 nb         1 X4U      -0.222500
     28 N23         32.6960   -48.9550    36.6320 ns         1 X4U      -0.505900
     29 N32         27.2790   -42.6990    33.4240 ns         1 X4U      -0.363400
     30 O22         34.7370   -47.9950    36.8690 o          1 X4U      -0.608100
     31 O31         25.3830   -43.8830    33.8430 o          1 X4U      -0.621100
     32 O33         26.5510   -41.5860    32.8560 oh         1 X4U      -0.452100
     33 Cl14        38.5960   -55.3310    39.1180 cl         1 X4U      -0.193000
     34 H1          34.1220   -58.4890    38.1320 ha         1 X4U       0.115000
     35 H2          34.5010   -56.7770    36.3590 ha         1 X4U       0.115000
     36 H3          35.3570   -54.5280    36.9640 ha         1 X4U       0.122000
     37 H4          35.4380   -55.6830    41.1270 ha         1 X4U       0.122000
     38 H5          34.6000   -57.9350    40.5160 ha         1 X4U       0.115000
     39 H6          35.7470   -52.1170    41.6080 ha         1 X4U       0.127000
     40 H7          37.3860   -51.8830    43.4560 ha         1 X4U       0.122000
     41 H8          39.5180   -53.1740    43.4080 ha         1 X4U       0.121000
     42 H9          40.0080   -54.6880    41.4920 ha         1 X4U       0.132000
     43 H10         32.6400   -51.3790    37.5650 h4         1 X4U       0.035100
     44 H11         36.5420   -49.5020    38.0000 h4         1 X4U       0.035100
     45 H12         32.5740   -47.5740    35.0630 h1         1 X4U       0.056700
     46 H13         32.0960   -46.9500    36.6610 h1         1 X4U       0.056700
     47 H14         30.0390   -48.3850    36.5970 hc         1 X4U       0.044200
     48 H15         30.5140   -49.0040    35.0130 hc         1 X4U       0.044200
     49 H16         30.3630   -46.6840    34.0600 hc         1 X4U       0.043700
     50 H17         29.8980   -46.0680    35.6470 hc         1 X4U       0.043700
     51 H18         27.8190   -47.4690    35.6000 hc         1 X4U       0.045200
     52 H19         28.3100   -48.1630    34.0600 hc         1 X4U       0.045200
     53 H20         26.6240   -46.4940    33.6270 hc         1 X4U       0.043700
     54 H21         28.1460   -45.9120    32.9680 hc         1 X4U       0.043700
     55 H22         28.4430   -44.3840    34.9080 hc         1 X4U       0.080200
     56 H23         26.9510   -45.0390    35.6580 hc         1 X4U       0.080200
     57 H24         32.1580   -49.7950    36.7990 hn         1 X4U       0.309500
     58 H25         28.2600   -42.5400    33.6530 hn         1 X4U       0.350500
     59 H26         25.6190   -41.7850    33.1230 ho         1 X4U       0.477000
@<TRIPOS>BOND
     1     1     2 ar  
     2     1     6 ar  
     3     1    34 1   
     4     2     3 ar  
     5     2    35 1   
     6     3     4 ar  
     7     3    36 1   
     8     4     5 ar  
     9     4    25 1   
    10     5     6 ar  
    11     5    37 1   
    12     6    38 1   
    13     7     8 ar  
    14     7    12 ar  
    15     7    25 1   
    16     8     9 ar  
    17     8    39 1   
    18     9    10 ar  
    19     9    40 1   
    20    10    11 ar  
    21    10    41 1   
    22    11    12 ar  
    23    11    42 1   
    24    12    33 1   
    25    13    25 1   
    26    13    26 ar  
    27    13    27 ar  
    28    14    15 ar  
    29    14    26 ar  
    30    14    43 1   
    31    15    16 ar  
    32    15    17 1   
    33    16    27 ar  
    34    16    44 1   
    35    17    28 1   
    36    17    30 2   
    37    18    19 1   
    38    18    28 1   
    39    18    45 1   
    40    18    46 1   
    41    19    20 1   
    42    19    47 1   
    43    19    48 1   
    44    20    21 1   
    45    20    49 1   
    46    20    50 1   
    47    21    22 1   
    48    21    51 1   
    49    21    52 1   
    50    22    23 1   
    51    22    53 1   
    52    22    54 1   
    53    23    24 1   
    54    23    55 1   
    55    23    56 1   
    56    24    29 1   
    57    24    31 2   
    58    28    57 1   
    59    29    32 1   
    60    29    58 1   
    61    32    59 1   
@<TRIPOS>SUBSTRUCTURE
     1 X4U         1 TEMP              0 ****  ****    0 ROOT
