@<TRIPOS>MOLECULE
X4U
   59    61     1     0     0
SMALL
abcg2


@<TRIPOS>ATOM
      1 C01         34.6250   -57.4140    38.2030 ca         1 X4U      -0.115000
      2 C02         34.7990   -56.3830    37.2830 ca         1 X4U      -0.099000
      3 C03         35.1890   -55.1210    37.7070 ca         1 X4U      -0.107000
      4 C04         35.3920   -54.8760    39.0650 ca         1 X4U       0.301000
      5 C05         35.2230   -55.9050    39.9870 ca         1 X4U      -0.107000
      6 C06         34.8430   -57.1710    39.5550 ca         1 X4U      -0.099000
      7 C08         36.9300   -53.5530    40.4230 ca         1 X4U       0.296000
      8 C09         36.7100   -53.3010    41.7750 ca         1 X4U      -0.093000
      9 C10         37.7640   -53.3020    42.6770 ca         1 X4U      -0.103000
     10 C11         39.0560   -53.5630    42.2310 ca         1 X4U      -0.097000
     11 C12         39.2940   -53.8110    40.8850 ca         1 X4U      -0.099000
     12 C13         38.2330   -53.7980    39.9890 ca         1 X4U       0.133000
     13 C15         35.2270   -52.4230    39.1250 ca         1 X4U       0.399900
     14 C17         33.4900   -51.3580    38.1180 ca         1 X4U       0.181400
     15 C18         34.1000   -50.1190    38.3090 ca         1 X4U      -0.318600
     16 C19         35.3150   -50.1560    38.9930 ca         1 X4U       0.181400
     17 C21         33.5370   -48.8110    37.8710 c          1 X4U       0.631700
     18 C24         31.9970   -47.6780    36.3020 c3         1 X4U       0.102000
     19 C25         30.5870   -48.0000    35.8270 c3         1 X4U      -0.094400
     20 C26         29.9270   -46.8120    35.1320 c3         1 X4U      -0.075400
     21 C27         28.5040   -47.1190    34.6690 c3         1 X4U      -0.073400
     22 C28         27.8690   -46.0210    33.8120 c3         1 X4U      -0.075400
     23 C29         27.6520   -44.7160    34.5780 c3         1 X4U      -0.153400
     24 C30         26.9650   -43.5870    33.8510 c          1 X4U       0.574100
     25 N07         35.8300   -53.5930    39.5140 nh         1 X4U      -0.825900
     26 N16         34.0300   -52.4990    38.5240 nb         1 X4U      -0.222500
     27 N20         35.8870   -51.2820    39.3940 nb         1 X4U      -0.222500
     28 N23         32.6430   -48.8540    36.8640 ns         1 X4U      -0.505900
     29 N32         26.6020   -43.7920    32.5750 ns         1 X4U      -0.363400
     30 O22         33.8860   -47.7590    38.4170 o          1 X4U      -0.608100
     31 O31         26.7040   -42.5020    34.3880 o          1 X4U      -0.621100
     32 O33         26.0780   -42.7100    31.8700 oh         1 X4U      -0.452100
     33 CL14        38.5480   -54.0680    38.2950 cl         1 X4U      -0.193000
     34 H1          34.3270   -58.4000    37.8680 ha         1 X4U       0.115000
     35 H2          34.6450   -56.5660    36.2270 ha         1 X4U       0.115000
     36 H3          35.3450   -54.3270    36.9910 ha         1 X4U       0.122000
     37 H4          35.3890   -55.7170    41.0390 ha         1 X4U       0.122000
     38 H5          34.7130   -57.9650    40.2790 ha         1 X4U       0.115000
     39 H6          35.6970   -53.1090    42.1050 ha         1 X4U       0.127000
     40 H7          37.5770   -53.1080    43.7250 ha         1 X4U       0.122000
     41 H8          39.8840   -53.5720    42.9280 ha         1 X4U       0.121000
     42 H9          40.2950   -54.0060    40.5260 ha         1 X4U       0.132000
     43 H10         32.5140   -51.4410    37.6510 h4         1 X4U       0.035100
     44 H11         35.8420   -49.2330    39.2080 h4         1 X4U       0.035100
     45 H12         32.5930   -47.2920    35.4670 h1         1 X4U       0.056700
     46 H13         31.9810   -46.9070    37.0710 h1         1 X4U       0.056700
     47 H14         29.9840   -48.3160    36.6840 hc         1 X4U       0.044200
     48 H15         30.6240   -48.8490    35.1360 hc         1 X4U       0.044200
     49 H16         30.5320   -46.5190    34.2660 hc         1 X4U       0.043700
     50 H17         29.9260   -45.9550    35.8120 hc         1 X4U       0.043700
     51 H18         27.8700   -47.3120    35.5410 hc         1 X4U       0.045200
     52 H19         28.5180   -48.0440    34.0840 hc         1 X4U       0.045200
     53 H20         26.9090   -46.3840    33.4350 hc         1 X4U       0.043700
     54 H21         28.5090   -45.8410    32.9420 hc         1 X4U       0.043700
     55 H22         28.6040   -44.3060    34.9250 hc         1 X4U       0.080200
     56 H23         27.0580   -44.9040    35.4770 hc         1 X4U       0.080200
     57 H24         32.5070   -49.7240    36.3740 hn         1 X4U       0.309500
     58 H25         26.9760   -44.5050    31.9700 hn         1 X4U       0.350500
     59 H26         26.0900   -42.0050    32.5530 ho         1 X4U       0.477000
@<TRIPOS>BOND
     1     1     2 ar  
     2     1     6 ar  
     3     1    34 1   
     4     2     3 ar  
     5     2    35 1   
     6     3     4 ar  
     7     3    36 1   
     8     4     5 ar  
     9     4    25 1   
    10     5     6 ar  
    11     5    37 1   
    12     6    38 1   
    13     7     8 ar  
    14     7    12 ar  
    15     7    25 1   
    16     8     9 ar  
    17     8    39 1   
    18     9    10 ar  
    19     9    40 1   
    20    10    11 ar  
    21    10    41 1   
    22    11    12 ar  
    23    11    42 1   
    24    12    33 1   
    25    13    25 1   
    26    13    26 ar  
    27    13    27 ar  
    28    14    15 ar  
    29    14    26 ar  
    30    14    43 1   
    31    15    16 ar  
    32    15    17 1   
    33    16    27 ar  
    34    16    44 1   
    35    17    28 1   
    36    17    30 2   
    37    18    19 1   
    38    18    28 1   
    39    18    45 1   
    40    18    46 1   
    41    19    20 1   
    42    19    47 1   
    43    19    48 1   
    44    20    21 1   
    45    20    49 1   
    46    20    50 1   
    47    21    22 1   
    48    21    51 1   
    49    21    52 1   
    50    22    23 1   
    51    22    53 1   
    52    22    54 1   
    53    23    24 1   
    54    23    55 1   
    55    23    56 1   
    56    24    29 1   
    57    24    31 2   
    58    28    57 1   
    59    29    32 1   
    60    29    58 1   
    61    32    59 1   
@<TRIPOS>SUBSTRUCTURE
     1 X4U         1 TEMP              0 ****  ****    0 ROOT
