@<TRIPOS>MOLECULE
X4V
   21    21     1     0     0
SMALL
bcc


@<TRIPOS>ATOM
      1 C1           9.3450    -3.5050   -15.9620 c3         1 X4V       0.220600
      2 C2           9.3290    -1.0070   -15.9200 c3         1 X4V       0.220600
      3 C3           7.3040    -2.2660   -16.3780 ca         1 X4V       0.263600
      4 C4           6.5630    -1.0650   -16.4860 ca         1 X4V      -0.376300
      5 C5           5.2170    -1.1490   -16.7550 ca         1 X4V       0.474200
      6 C6           5.2160    -3.4140   -16.7990 ca         1 X4V       0.682200
      7 C7           6.5870    -3.4600   -16.5320 ca         1 X4V      -0.402300
      8 N1           8.6390    -2.2580   -16.1420 nh         1 X4V      -0.688000
      9 N2           4.5290    -2.2770   -16.9170 nb         1 X4V      -0.771000
     10 N3           4.4960    -4.5750   -16.9090 nv         1 X4V      -0.939500
     11 H1          10.4040    -3.3050   -15.8250 h1         1 X4V       0.037033
     12 H2           8.9930    -4.0600   -15.0880 h1         1 X4V       0.037033
     13 H3           9.2430    -4.1550   -16.8350 h1         1 X4V       0.037033
     14 H4          10.3930    -1.1980   -15.8150 h1         1 X4V       0.037033
     15 H5           9.2010    -0.3220   -16.7610 h1         1 X4V       0.037033
     16 H6           8.9890    -0.4960   -15.0150 h1         1 X4V       0.037033
     17 H7           7.0180    -0.0930   -16.3670 ha         1 X4V       0.137000
     18 H8           4.6440    -0.2310   -16.8480 h4         1 X4V       0.009100
     19 H9           7.0710    -4.4230   -16.4480 ha         1 X4V       0.134000
     20 H10          3.6180    -4.4940   -17.3950 hn         1 X4V       0.406800
     21 H11          5.0060    -5.4100   -17.1420 hn         1 X4V       0.406800
@<TRIPOS>BOND
     1     1     8 1   
     2     1    11 1   
     3     1    12 1   
     4     1    13 1   
     5     2     8 1   
     6     2    14 1   
     7     2    15 1   
     8     2    16 1   
     9     3     4 ar  
    10     3     7 ar  
    11     3     8 1   
    12     4     5 ar  
    13     4    17 1   
    14     5     9 ar  
    15     5    18 1   
    16     6     7 ar  
    17     6     9 ar  
    18     6    10 1   
    19     7    19 1   
    20    10    20 1   
    21    10    21 1   
@<TRIPOS>SUBSTRUCTURE
     1 X4V         1 TEMP              0 ****  ****    0 ROOT
