@<TRIPOS>MOLECULE
X4V
   21    21     1     0     0
SMALL
No Charge or Current Charge


@<TRIPOS>ATOM
      1 C1           9.4990    -3.4550   -16.2870 c3         1 X4V       0.220600
      2 C2           9.2990    -1.0420   -15.5590 c3         1 X4V       0.220600
      3 C3           7.2620    -2.2830   -16.3960 ca         1 X4V       0.402000
      4 C4           6.5700    -1.1080   -16.7120 ca         1 X4V      -0.293000
      5 C5           5.2050    -1.1780   -17.0090 ca         1 X4V       0.408900
      6 C6           5.1900    -3.4260   -16.6960 ca         1 X4V       0.616900
      7 C7           6.5400    -3.4790   -16.3920 ca         1 X4V      -0.319000
      8 N1           8.6430    -2.2610   -16.0910 nh         1 X4V      -0.826400
      9 N2           4.5140    -2.3350   -17.0030 nb         1 X4V      -0.771000
     10 N3           4.4070    -4.5020   -16.7260 nv         1 X4V      -1.049900
     11 H1          10.5530    -3.1680   -16.3970 h1         1 X4V       0.037033
     12 H2           9.4120    -4.1360   -15.4300 h1         1 X4V       0.037033
     13 H3           9.2070    -3.9940   -17.1990 h1         1 X4V       0.037033
     14 H4          10.2160    -1.2980   -15.0120 h1         1 X4V       0.037033
     15 H5           9.5620    -0.3580   -16.3770 h1         1 X4V       0.037033
     16 H6           8.6330    -0.5190   -14.8600 h1         1 X4V       0.037033
     17 H7           7.0710    -0.1470   -16.7450 ha         1 X4V       0.119000
     18 H8           4.6460    -0.2790   -17.2630 h4         1 X4V       0.009100
     19 H9           7.0070    -4.4250   -16.1450 ha         1 X4V       0.116000
     20 H10          3.5170    -4.3650   -17.1890 hn         1 X4V       0.462000
     21 H11          4.8530    -5.4030   -16.8500 hn         1 X4V       0.462000
@<TRIPOS>BOND
     1     1     8 1   
     2     1    11 1   
     3     1    12 1   
     4     1    13 1   
     5     2     8 1   
     6     2    14 1   
     7     2    15 1   
     8     2    16 1   
     9     3     4 ar  
    10     3     7 ar  
    11     3     8 1   
    12     4     5 ar  
    13     4    17 1   
    14     5     9 ar  
    15     5    18 1   
    16     6     7 ar  
    17     6     9 ar  
    18     6    10 1   
    19     7    19 1   
    20    10    20 1   
    21    10    21 1   
@<TRIPOS>SUBSTRUCTURE
     1 X4V         1 TEMP              0 ****  ****    0 ROOT
