@<TRIPOS>MOLECULE
X4X
   61    60     1     0     0
SMALL
abcg2


@<TRIPOS>ATOM
      1 C10        -93.7850    33.0150   -34.7980 c3         1 X4X      -0.071400
      2 C11        -94.6350    19.2040   -39.5400 c          1 X4X       0.607100
      3 C12        -95.0400    31.2910   -36.2750 c3         1 X4X      -0.047200
      4 C13        -93.8600    32.3580   -33.4200 c3         1 X4X      -0.071400
      5 C14        -93.3690    27.2310   -36.5210 c2         1 X4X      -0.262200
      6 C15        -93.8500    28.4760   -36.4610 ce         1 X4X      -0.168000
      7 C16        -95.2990    30.1500   -35.3350 c2         1 X4X      -0.188200
      8 C17        -94.7660    28.9240   -35.4260 ce         1 X4X      -0.198000
      9 C18        -92.6900    31.4340   -33.1130 c3         1 X4X      -0.090100
     10 C19        -92.2530    19.2110   -38.7840 c3         1 X4X       0.106000
     11 C20        -91.3240    18.1720   -38.1800 c3         1 X4X       0.146600
     12 C01        -95.4050    22.6340   -38.4220 c3         1 X4X      -0.075400
     13 C02        -94.7080    23.8410   -39.0390 c3         1 X4X      -0.076400
     14 C03        -96.2990    21.8590   -39.3850 c3         1 X4X      -0.075400
     15 C05        -95.5990    21.2990   -40.6220 c3         1 X4X      -0.057400
     16 C06        -93.2460    25.8690   -38.6130 c3         1 X4X      -0.071400
     17 C07        -94.3580    20.4660   -40.3300 c3         1 X4X      -0.156400
     18 C08        -92.4630    26.7050   -37.5980 c3         1 X4X       0.209500
     19 C09        -93.7500    32.0820   -36.0060 c3         1 X4X      -0.067400
     20 N01        -93.5930    18.6700   -38.8720 ns         1 X4X      -0.521900
     21 O01        -95.7380    18.6720   -39.5300 o          1 X4X      -0.607100
     22 O02        -91.8130    27.7290   -38.3160 oh         1 X4X      -0.659000
     23 O03        -90.0380    18.7360   -38.1180 oh         1 X4X      -0.657000
     24 H1         -92.8880    33.6420   -34.8290 hc         1 X4X       0.035700
     25 H2         -94.6330    33.6980   -34.9130 hc         1 X4X       0.035700
     26 H3         -95.8880    31.9810   -36.2440 hc         1 X4X       0.044700
     27 H4         -94.9970    30.9160   -37.3010 hc         1 X4X       0.044700
     28 H5         -93.8940    33.1530   -32.6690 hc         1 X4X       0.035200
     29 H6         -94.7980    31.8100   -33.3120 hc         1 X4X       0.035200
     30 H7         -93.6620    26.5150   -35.7570 ha         1 X4X       0.173000
     31 H8         -93.5600    29.1950   -37.2200 ha         1 X4X       0.180000
     32 H9         -95.9750    30.3390   -34.5080 ha         1 X4X       0.169000
     33 H10        -95.0360    28.1880   -34.6740 ha         1 X4X       0.168000
     34 H11        -92.7430    31.0580   -32.0900 hc         1 X4X       0.031700
     35 H12        -92.6720    30.5690   -33.7770 hc         1 X4X       0.031700
     36 H13        -91.7370    31.9550   -33.2240 hc         1 X4X       0.031700
     37 H14        -91.8860    19.4760   -39.7780 h1         1 X4X       0.053700
     38 H15        -92.2320    20.1180   -38.1700 h1         1 X4X       0.053700
     39 H16        -91.6950    17.8890   -37.1860 h1         1 X4X       0.025200
     40 H17        -91.3480    17.2670   -38.8020 h1         1 X4X       0.025200
     41 H18        -94.6530    21.9680   -37.9840 hc         1 X4X       0.035200
     42 H19        -96.0170    22.9740   -37.5810 hc         1 X4X       0.035200
     43 H20        -94.0360    23.5200   -39.8420 hc         1 X4X       0.039200
     44 H21        -95.4550    24.4890   -39.5100 hc         1 X4X       0.039200
     45 H22        -97.1110    22.5130   -39.7180 hc         1 X4X       0.047700
     46 H23        -96.7780    21.0430   -38.8390 hc         1 X4X       0.047700
     47 H24        -93.1650    23.9990   -37.5480 hc         1 X4X       0.037700
     48 H25        -94.5990    24.9440   -37.2080 hc         1 X4X       0.037700
     49 H26        -95.2960    22.1210   -41.2760 hc         1 X4X       0.047200
     50 H27        -96.3130    20.7080   -41.1990 hc         1 X4X       0.047200
     51 H28        -93.9990    26.5110   -39.0820 hc         1 X4X       0.053200
     52 H29        -92.5590    25.5500   -39.4030 hc         1 X4X       0.053200
     53 H30        -93.6030    21.0770   -39.8310 hc         1 X4X       0.058200
     54 H31        -93.8940    20.1570   -41.2740 hc         1 X4X       0.058200
     55 H32        -91.7250    26.0410   -37.1200 h1         1 X4X       0.031700
     56 H33        -92.9090    31.3870   -35.9310 hc         1 X4X       0.039200
     57 H34        -93.5510    32.6940   -36.8900 hc         1 X4X       0.039200
     58 H35        -93.8010    17.8430   -38.3310 hn         1 X4X       0.312500
     59 H36        -91.2980    28.2530   -37.6940 ho         1 X4X       0.445000
     60 H37        -89.4420    18.0860   -37.7360 ho         1 X4X       0.451000
     61 C04        -93.9200    24.6430   -38.0120 c3         1 X4X      -0.075400
@<TRIPOS>BOND
     1     1     4 1   
     2     1    19 1   
     3     1    24 1   
     4     1    25 1   
     5     2    17 1   
     6     2    20 1   
     7     2    21 2   
     8     3     7 1   
     9     3    19 1   
    10     3    26 1   
    11     3    27 1   
    12     4     9 1   
    13     4    28 1   
    14     4    29 1   
    15     5     6 2   
    16     5    18 1   
    17     5    30 1   
    18     6     8 1   
    19     6    31 1   
    20     7     8 2   
    21     7    32 1   
    22     8    33 1   
    23     9    34 1   
    24     9    35 1   
    25     9    36 1   
    26    10    11 1   
    27    10    20 1   
    28    10    37 1   
    29    10    38 1   
    30    11    23 1   
    31    11    39 1   
    32    11    40 1   
    33    12    13 1   
    34    12    14 1   
    35    12    41 1   
    36    12    42 1   
    37    13    43 1   
    38    13    44 1   
    39    13    61 1   
    40    14    15 1   
    41    14    45 1   
    42    14    46 1   
    43    15    17 1   
    44    15    49 1   
    45    15    50 1   
    46    16    18 1   
    47    16    51 1   
    48    16    52 1   
    49    16    61 1   
    50    17    53 1   
    51    17    54 1   
    52    18    22 1   
    53    18    55 1   
    54    19    56 1   
    55    19    57 1   
    56    20    58 1   
    57    22    59 1   
    58    23    60 1   
    59    47    61 1   
    60    48    61 1   
@<TRIPOS>SUBSTRUCTURE
     1 X4X         1 TEMP              0 ****  ****    0 ROOT
