@<TRIPOS>MOLECULE
X4X
   61    60     1     0     0
SMALL
No Charge or Current Charge


@<TRIPOS>ATOM
      1 C10        -94.5160    32.6630   -35.2490 c3         1 X4X      -0.071400
      2 C11        -94.7510    19.3860   -40.1950 c          1 X4X       0.607100
      3 C12        -95.6290    30.3350   -35.7540 c3         1 X4X      -0.047200
      4 C13        -93.8170    32.3890   -33.8940 c3         1 X4X      -0.071400
      5 C14        -92.5330    27.1340   -36.1390 c2         1 X4X      -0.262200
      6 C15        -93.4710    28.1030   -36.0550 ce         1 X4X      -0.168000
      7 C16        -95.0730    29.4330   -34.6660 c2         1 X4X      -0.188200
      8 C17        -94.1380    28.4650   -34.7980 ce         1 X4X      -0.198000
      9 C18        -92.3700    31.8670   -34.0140 c3         1 X4X      -0.090100
     10 C19        -92.8290    19.3390   -38.5450 c3         1 X4X       0.106000
     11 C20        -92.2520    18.3050   -37.5510 c3         1 X4X       0.146600
     12 C01        -95.0380    22.8300   -38.5440 c3         1 X4X      -0.075400
     13 C02        -94.3460    24.1230   -39.0330 c3         1 X4X      -0.076400
     14 C03        -96.0190    22.1990   -39.5630 c3         1 X4X      -0.075400
     15 C05        -95.4050    21.7710   -40.9220 c3         1 X4X      -0.057400
     16 C06        -92.7450    26.0560   -38.4450 c3         1 X4X      -0.071400
     17 C07        -94.2800    20.7060   -40.8400 c3         1 X4X      -0.156400
     18 C08        -91.8090    26.6940   -37.3920 c3         1 X4X       0.209500
     19 C09        -94.6650    31.4570   -36.2160 c3         1 X4X      -0.067400
     20 N01        -94.1730    18.9740   -39.0150 ns         1 X4X      -0.521900
     21 O01        -95.6420    18.7130   -40.6880 o          1 X4X      -0.607100
     22 O02        -91.1700    27.8340   -37.9560 oh         1 X4X      -0.659000
     23 O03        -90.9400    18.7000   -37.1260 oh         1 X4X      -0.657000
     24 H1         -93.9560    33.4510   -35.7690 hc         1 X4X       0.035700
     25 H2         -95.5110    33.0810   -35.0520 hc         1 X4X       0.035700
     26 H3         -96.5690    30.7900   -35.4180 hc         1 X4X       0.044700
     27 H4         -95.8950    29.7250   -36.6270 hc         1 X4X       0.044700
     28 H5         -93.7980    33.3260   -33.3240 hc         1 X4X       0.035200
     29 H6         -94.4120    31.6880   -33.2980 hc         1 X4X       0.035200
     30 H7         -92.2380    26.5760   -35.2500 ha         1 X4X       0.173000
     31 H8         -93.7640    28.6490   -36.9530 ha         1 X4X       0.180000
     32 H9         -95.5140    29.6150   -33.6840 ha         1 X4X       0.169000
     33 H10        -93.8400    27.8950   -33.9150 ha         1 X4X       0.168000
     34 H11        -91.9150    31.7810   -33.0200 hc         1 X4X       0.031700
     35 H12        -92.3440    30.8770   -34.4830 hc         1 X4X       0.031700
     36 H13        -91.7590    32.5530   -34.6130 hc         1 X4X       0.031700
     37 H14        -92.1550    19.4110   -39.4090 h1         1 X4X       0.053700
     38 H15        -92.8760    20.3190   -38.0560 h1         1 X4X       0.053700
     39 H16        -92.9240    18.2250   -36.6860 h1         1 X4X       0.025200
     40 H17        -92.2130    17.3210   -38.0390 h1         1 X4X       0.025200
     41 H18        -94.2760    22.0950   -38.2630 hc         1 X4X       0.035200
     42 H19        -95.5970    23.0560   -37.6280 hc         1 X4X       0.035200
     43 H20        -93.7370    23.9010   -39.9180 hc         1 X4X       0.039200
     44 H21        -95.1110    24.8470   -39.3410 hc         1 X4X       0.039200
     45 H22        -96.8270    22.9150   -39.7590 hc         1 X4X       0.047700
     46 H23        -96.4960    21.3280   -39.0960 hc         1 X4X       0.047700
     47 H24        -92.6790    24.0380   -37.6490 hc         1 X4X       0.037700
     48 H25        -94.0480    24.9890   -37.0710 hc         1 X4X       0.037700
     49 H26        -95.0220    22.6560   -41.4440 hc         1 X4X       0.047200
     50 H27        -96.2120    21.3790   -41.5540 hc         1 X4X       0.047200
     51 H28        -93.5060    26.7870   -38.7450 hc         1 X4X       0.053200
     52 H29        -92.1580    25.8240   -39.3420 hc         1 X4X       0.053200
     53 H30        -93.4210    21.1350   -40.3170 hc         1 X4X       0.058200
     54 H31        -93.9650    20.4770   -41.8650 hc         1 X4X       0.058200
     55 H32        -91.0490    25.9500   -37.1130 h1         1 X4X       0.031700
     56 H33        -93.6800    31.0360   -36.4440 hc         1 X4X       0.039200
     57 H34        -95.0470    31.8480   -37.1670 hc         1 X4X       0.039200
     58 H35        -94.5970    18.1500   -38.6060 hn         1 X4X       0.312500
     59 H36        -90.8670    28.3730   -37.1940 ho         1 X4X       0.445000
     60 H37        -90.6210    18.0120   -36.5000 ho         1 X4X       0.451000
     61 C04        -93.4420    24.7640   -37.9580 c3         1 X4X      -0.075400
@<TRIPOS>BOND
     1     1     4 1   
     2     1    19 1   
     3     1    24 1   
     4     1    25 1   
     5     2    17 1   
     6     2    20 1   
     7     2    21 2   
     8     3     7 1   
     9     3    19 1   
    10     3    26 1   
    11     3    27 1   
    12     4     9 1   
    13     4    28 1   
    14     4    29 1   
    15     5     6 2   
    16     5    18 1   
    17     5    30 1   
    18     6     8 1   
    19     6    31 1   
    20     7     8 2   
    21     7    32 1   
    22     8    33 1   
    23     9    34 1   
    24     9    35 1   
    25     9    36 1   
    26    10    11 1   
    27    10    20 1   
    28    10    37 1   
    29    10    38 1   
    30    11    23 1   
    31    11    39 1   
    32    11    40 1   
    33    12    13 1   
    34    12    14 1   
    35    12    41 1   
    36    12    42 1   
    37    13    43 1   
    38    13    44 1   
    39    13    61 1   
    40    14    15 1   
    41    14    45 1   
    42    14    46 1   
    43    15    17 1   
    44    15    49 1   
    45    15    50 1   
    46    16    18 1   
    47    16    51 1   
    48    16    52 1   
    49    16    61 1   
    50    17    53 1   
    51    17    54 1   
    52    18    22 1   
    53    18    55 1   
    54    19    56 1   
    55    19    57 1   
    56    20    58 1   
    57    22    59 1   
    58    23    60 1   
    59    47    61 1   
    60    48    61 1   
@<TRIPOS>SUBSTRUCTURE
     1 X4X         1 TEMP              0 ****  ****    0 ROOT
