@<TRIPOS>MOLECULE
X4Y
   30    31     1     0     0
SMALL
No Charge or Current Charge


@<TRIPOS>ATOM
      1 C10         -2.8720    -4.9030    42.1630 c6         1 X4Y      -0.072400
      2 C02          0.9190    -2.8300    43.5710 c5         1 X4Y       0.350500
      3 C03         -0.0040    -3.9210    43.0180 c5         1 X4Y      -0.117400
      4 C04         -1.3280    -3.3700    43.5880 c5         1 X4Y       0.119500
      5 C05         -2.5400    -4.3630    43.5880 c6         1 X4Y      -0.040700
      6 C06         -3.8330    -3.7390    44.2030 c6         1 X4Y      -0.072400
      7 C07         -4.4460    -2.6360    43.3000 c6         1 X4Y      -0.074400
      8 C08         -4.7290    -3.1710    41.8740 c6         1 X4Y      -0.075400
      9 C09         -3.4650    -3.8050    41.2420 c6         1 X4Y      -0.074400
     10 N11         -0.9540    -2.9870    44.9790 n7         1 X4Y      -0.556900
     11 O12          0.4950    -2.7210    44.9370 os         1 X4Y      -0.308300
     12 H1          -3.5960    -5.7250    42.2500 hc         1 X4Y       0.045200
     13 H2          -1.9820    -5.3440    41.6950 hc         1 X4Y       0.045200
     14 H3           0.7580    -1.8750    43.0490 h2         1 X4Y       0.055700
     15 H4           0.2360    -4.9170    43.4070 hc         1 X4Y       0.065700
     16 H5           0.0060    -3.9610    41.9240 hc         1 X4Y       0.065700
     17 H6          -1.6070    -2.4670    43.0270 h1         1 X4Y       0.054700
     18 H7          -2.2560    -5.2240    44.2100 hc         1 X4Y       0.060700
     19 H8          -4.5780    -4.5330    44.3510 hc         1 X4Y       0.045200
     20 H9          -3.6330    -3.3330    45.2040 hc         1 X4Y       0.045200
     21 H10         -3.7720    -1.7700    43.2460 hc         1 X4Y       0.036450
     22 H11         -5.3790    -2.2690    43.7470 hc         1 X4Y       0.036450
     23 H12         -5.0970    -2.3560    41.2360 hc         1 X4Y       0.038200
     24 H13         -5.5320    -3.9200    41.9160 hc         1 X4Y       0.038200
     25 H14         -3.7200    -4.2400    40.2660 hc         1 X4Y       0.036450
     26 H15         -2.7140    -3.0280    41.0450 hc         1 X4Y       0.036450
     27 H19         -1.3930    -2.0830    45.2030 hn         1 X4Y       0.387000
     28 N01          2.3010    -3.2420    43.6970 n8         1 X4Y      -1.012200
     29 H16          2.7620    -2.5530    44.3000 hn         1 X4Y       0.422500
     30 H17          2.3000    -4.0810    44.2840 hn         1 X4Y       0.422500
@<TRIPOS>BOND
     1     1     5 1   
     2     1     9 1   
     3     1    12 1   
     4     1    13 1   
     5     2     3 1   
     6     2    11 1   
     7     2    14 1   
     8     2    28 1   
     9     3     4 1   
    10     3    15 1   
    11     3    16 1   
    12     4     5 1   
    13     4    10 1   
    14     4    17 1   
    15     5     6 1   
    16     5    18 1   
    17     6     7 1   
    18     6    19 1   
    19     6    20 1   
    20     7     8 1   
    21     7    21 1   
    22     7    22 1   
    23     8     9 1   
    24     8    23 1   
    25     8    24 1   
    26     9    25 1   
    27     9    26 1   
    28    10    11 1   
    29    10    27 1   
    30    28    29 1   
    31    28    30 1   
@<TRIPOS>SUBSTRUCTURE
     1 X4Y         1 TEMP              0 ****  ****    0 ROOT
