@<TRIPOS>MOLECULE
X4Y
   30    31     1     0     0
SMALL
abcg2


@<TRIPOS>ATOM
      1 C10         -2.7070    -4.8430    42.2330 c6         1 X4Y      -0.072400
      2 C02          0.9810    -2.9130    43.8250 c5         1 X4Y       0.350500
      3 C03         -0.0490    -3.4310    42.8310 c5         1 X4Y      -0.117400
      4 C04         -1.4050    -2.9950    43.4210 c5         1 X4Y       0.119500
      5 C05         -2.4090    -4.1470    43.5730 c6         1 X4Y      -0.040700
      6 C06         -3.7280    -3.6900    44.2180 c6         1 X4Y      -0.072400
      7 C07         -4.5870    -2.8320    43.2840 c6         1 X4Y      -0.074400
      8 C08         -4.8570    -3.5450    41.9580 c6         1 X4Y      -0.075400
      9 C09         -3.5530    -3.9820    41.2900 c6         1 X4Y      -0.074400
     10 N11         -1.0680    -2.4000    44.7500 n7         1 X4Y      -0.556900
     11 O12          0.2320    -2.9090    45.0810 os         1 X4Y      -0.308300
     12 H1          -3.2530    -5.7680    42.4470 hc         1 X4Y       0.045200
     13 H2          -1.7800    -5.1410    41.7400 hc         1 X4Y       0.045200
     14 H3           1.2600    -1.8740    43.6130 h2         1 X4Y       0.055700
     15 H4           0.0250    -4.5200    42.7900 hc         1 X4Y       0.065700
     16 H5           0.1210    -3.0420    41.8280 hc         1 X4Y       0.065700
     17 H6          -1.8430    -2.1960    42.8240 h1         1 X4Y       0.054700
     18 H7          -1.9370    -4.8780    44.2390 hc         1 X4Y       0.060700
     19 H8          -4.2980    -4.5820    44.4980 hc         1 X4Y       0.045200
     20 H9          -3.5150    -3.1470    45.1410 hc         1 X4Y       0.045200
     21 H10         -4.0830    -1.8810    43.0840 hc         1 X4Y       0.036450
     22 H11         -5.5300    -2.5830    43.7790 hc         1 X4Y       0.036450
     23 H12         -5.4300    -2.8980    41.2870 hc         1 X4Y       0.038200
     24 H13         -5.4750    -4.4310    42.1470 hc         1 X4Y       0.038200
     25 H14         -3.7650    -4.5420    40.3750 hc         1 X4Y       0.036450
     26 H15         -2.9860    -3.0960    40.9850 hc         1 X4Y       0.036450
     27 H19         -0.9230    -1.4000    44.6080 hn         1 X4Y       0.387000
     28 N01          2.1600    -3.7010    43.9150 n8         1 X4Y      -1.012200
     29 H16          2.8060    -3.3360    44.6050 hn         1 X4Y       0.422500
     30 H17          1.9420    -4.6650    44.1490 hn         1 X4Y       0.422500
@<TRIPOS>BOND
     1     1     5 1   
     2     1     9 1   
     3     1    12 1   
     4     1    13 1   
     5     2     3 1   
     6     2    11 1   
     7     2    14 1   
     8     2    28 1   
     9     3     4 1   
    10     3    15 1   
    11     3    16 1   
    12     4     5 1   
    13     4    10 1   
    14     4    17 1   
    15     5     6 1   
    16     5    18 1   
    17     6     7 1   
    18     6    19 1   
    19     6    20 1   
    20     7     8 1   
    21     7    21 1   
    22     7    22 1   
    23     8     9 1   
    24     8    23 1   
    25     8    24 1   
    26     9    25 1   
    27     9    26 1   
    28    10    11 1   
    29    10    27 1   
    30    28    29 1   
    31    28    30 1   
@<TRIPOS>SUBSTRUCTURE
     1 X4Y         1 TEMP              0 ****  ****    0 ROOT
