@<TRIPOS>MOLECULE
X50
   60    63     1     0     0
SMALL
abcg2


@<TRIPOS>ATOM
      1 C10        158.6850   138.7410   123.2090 c3         1 X50       0.280100
      2 C13        158.1490   142.1880   124.7300 ca         1 X50      -0.108500
      3 C15        160.3240   141.4020   125.3660 ca         1 X50      -0.108500
      4 C17        157.3530   137.5170   125.5510 cc         1 X50      -0.383000
      5 C20        156.5810   136.0560   128.9140 c3         1 X50       0.237800
      6 C21        156.1640   136.9880   130.0590 c6         1 X50       0.189000
      7 C24        154.8050   139.0500   130.6480 c6         1 X50       0.150800
      8 C26        156.8910   138.6750   131.7750 c6         1 X50       0.116800
      9 C01        150.9430   136.5180   125.0120 c3         1 X50      -0.084600
     10 C03        152.4240   134.6470   125.8050 c3         1 X50      -0.084600
     11 C04        153.4350   136.7160   124.8330 cc         1 X50      -0.323800
     12 C05        153.4850   137.1710   123.5080 cc         1 X50       0.416500
     13 C08        156.7570   137.7480   124.3340 cd         1 X50       0.425000
     14 C11        158.8990   140.0160   123.9940 ca         1 X50      -0.120300
     15 C12        157.9260   141.0110   124.0300 ca         1 X50      -0.097500
     16 C14        159.3490   142.3890   125.4000 ca         1 X50      -0.104000
     17 C16        160.0970   140.2230   124.6690 ca         1 X50      -0.097500
     18 C18        156.5810   136.9500   126.6050 cc         1 X50       0.686900
     19 C23        154.9880   137.8920   129.6540 c6         1 X50      -0.109400
     20 C27        157.3010   137.9200   130.4930 c6         1 X50       0.135300
     21 C30        154.7380   136.8870   125.2920 cd         1 X50       0.465500
     22 N06        154.6830   137.5960   123.1360 nd         1 X50      -0.633100
     23 N07        155.4350   137.4170   124.2340 na         1 X50       0.045900
     24 N09        157.3320   138.2500   123.2340 nu         1 X50      -0.964200
     25 N19        157.1870   136.7210   127.7910 nu         1 X50      -0.934100
     26 N25        155.4390   138.6920   131.9090 n7         1 X50      -0.879400
     27 N29        155.3030   136.6390   126.4790 nd         1 X50      -0.789000
     28 O22        155.7920   136.1160   131.1090 oh         1 X50      -0.659000
     29 O28        158.4860   137.1800   130.6730 oh         1 X50      -0.646000
     30 H1         159.3700   137.9680   123.5690 h1         1 X50       0.061200
     31 H2         158.9380   138.9060   122.1610 h1         1 X50       0.061200
     32 H3         157.3820   142.9520   124.7520 ha         1 X50       0.115000
     33 H4         161.2620   141.5460   125.8880 ha         1 X50       0.115000
     34 H5         158.3940   137.7620   125.7070 ha         1 X50       0.134000
     35 H6         155.7020   135.5140   128.5680 h1         1 X50       0.078200
     36 H7         157.2850   135.3170   129.3010 h1         1 X50       0.078200
     37 H8         155.2220   139.9790   130.2300 h1         1 X50       0.034700
     38 H9         153.7460   139.2370   130.8250 h1         1 X50       0.034700
     39 H10        157.3170   138.1610   132.6400 h1         1 X50       0.040700
     40 H11        157.3190   139.6870   131.7500 h1         1 X50       0.040700
     41 H12        150.1290   136.1520   125.6380 hc         1 X50       0.031033
     42 H13        150.8240   137.5970   124.9050 hc         1 X50       0.031033
     43 H14        150.8220   136.0690   124.0230 hc         1 X50       0.031033
     44 H15        152.3340   136.6100   126.6240 hc         1 X50       0.053700
     45 H16        151.6230   134.2560   126.4350 hc         1 X50       0.031033
     46 H17        152.3740   134.1340   124.8420 hc         1 X50       0.031033
     47 H18        153.3740   134.3870   126.2740 hc         1 X50       0.031033
     48 H19        152.6710   137.2080   122.7980 h4         1 X50       0.039800
     49 H20        156.9830   140.8660   123.5160 ha         1 X50       0.114000
     50 H21        159.5200   143.3070   125.9470 ha         1 X50       0.115000
     51 H22        160.8590   139.4520   124.6560 ha         1 X50       0.114000
     52 H23        155.1480   138.2920   128.6530 hc         1 X50       0.068200
     53 H24        154.0880   137.2750   129.6040 hc         1 X50       0.068200
     54 H25        157.4360   138.6530   129.6850 h1         1 X50       0.032700
     55 H26        156.7380   138.3990   122.4340 hn         1 X50       0.529000
     56 H27        158.1700   136.9290   127.8570 hn         1 X50       0.494000
     57 H28        155.1660   139.3320   132.6430 hn         1 X50       0.422000
     58 H30        155.3970   136.6960   131.7820 ho         1 X50       0.475000
     59 H31        159.2090   137.7960   130.8240 ho         1 X50       0.437000
     60 C02        152.2920   136.1600   125.6260 c3         1 X50       0.035500
@<TRIPOS>BOND
     1     1    14 1   
     2     1    24 1   
     3     1    30 1   
     4     1    31 1   
     5     2    15 ar  
     6     2    16 ar  
     7     2    32 1   
     8     3    16 ar  
     9     3    17 ar  
    10     3    33 1   
    11     4    13 2   
    12     4    18 1   
    13     4    34 1   
    14     5     6 1   
    15     5    25 1   
    16     5    35 1   
    17     5    36 1   
    18     6    19 1   
    19     6    20 1   
    20     6    28 1   
    21     7    19 1   
    22     7    26 1   
    23     7    37 1   
    24     7    38 1   
    25     8    20 1   
    26     8    26 1   
    27     8    39 1   
    28     8    40 1   
    29     9    41 1   
    30     9    42 1   
    31     9    43 1   
    32     9    60 1   
    33    10    45 1   
    34    10    46 1   
    35    10    47 1   
    36    10    60 1   
    37    11    12 1   
    38    11    21 2   
    39    11    60 1   
    40    12    22 2   
    41    12    48 1   
    42    13    23 1   
    43    13    24 1   
    44    14    15 ar  
    45    14    17 ar  
    46    15    49 1   
    47    16    50 1   
    48    17    51 1   
    49    18    25 1   
    50    18    27 2   
    51    19    52 1   
    52    19    53 1   
    53    20    29 1   
    54    20    54 1   
    55    21    23 1   
    56    21    27 1   
    57    22    23 1   
    58    24    55 1   
    59    25    56 1   
    60    26    57 1   
    61    28    58 1   
    62    29    59 1   
    63    44    60 1   
@<TRIPOS>SUBSTRUCTURE
     1 X50         1 TEMP              0 ****  ****    0 ROOT
