@<TRIPOS>MOLECULE
X50
   60    63     1     0     0
SMALL
No Charge or Current Charge


@<TRIPOS>ATOM
      1 C10        158.7670   138.9400   123.6710 c3         1 X50       0.280100
      2 C13        157.0350   141.4050   126.0680 ca         1 X50      -0.108500
      3 C15        159.0780   140.6100   127.1210 ca         1 X50      -0.108500
      4 C17        157.4290   136.9200   125.5490 cc         1 X50      -0.383000
      5 C20        156.5260   136.0000   129.0270 c3         1 X50       0.237800
      6 C21        156.4050   137.4090   129.7290 c6         1 X50       0.189000
      7 C24        155.3890   139.7980   129.6210 c6         1 X50       0.150800
      8 C26        157.6500   139.5180   130.6010 c6         1 X50       0.116800
      9 C01        151.3330   136.8850   125.6550 c3         1 X50      -0.084600
     10 C03        151.7740   134.6100   124.5810 c3         1 X50      -0.084600
     11 C04        153.6100   136.3340   124.7260 cc         1 X50      -0.323800
     12 C05        153.6490   136.9170   123.4240 cc         1 X50       0.416500
     13 C08        156.9330   137.3330   124.3350 cd         1 X50       0.425000
     14 C11        158.4750   139.8200   124.8880 ca         1 X50      -0.120300
     15 C12        157.3140   140.6210   124.9350 ca         1 X50      -0.097500
     16 C14        157.9170   141.4000   127.1620 ca         1 X50      -0.104000
     17 C16        159.3560   139.8240   125.9900 ca         1 X50      -0.097500
     18 C18        156.5810   136.3030   126.5160 cc         1 X50       0.686900
     19 C23        155.5350   138.4160   128.9170 c6         1 X50      -0.109400
     20 C27        157.8100   138.0850   129.9710 c6         1 X50       0.135300
     21 C30        154.8910   136.4330   125.1670 cd         1 X50       0.465500
     22 N06        154.8350   137.3730   123.0210 nd         1 X50      -0.633100
     23 N07        155.5840   137.0340   124.1420 na         1 X50       0.045900
     24 N09        157.6480   138.0220   123.3900 nu         1 X50      -0.964200
     25 N19        157.1820   136.0210   127.6920 nu         1 X50      -0.934100
     26 N25        156.2300   139.9100   130.8410 n7         1 X50      -0.879400
     27 N29        155.3010   136.0220   126.4150 nd         1 X50      -0.789000
     28 O22        155.7470   137.2330   130.9940 oh         1 X50      -0.659000
     29 O28        158.6720   137.2620   130.7870 oh         1 X50      -0.646000
     30 H1         159.6870   138.3630   123.8440 h1         1 X50       0.061200
     31 H2         158.9500   139.5880   122.8020 h1         1 X50       0.061200
     32 H3         156.1360   142.0160   126.0990 ha         1 X50       0.115000
     33 H4         159.7630   140.6070   127.9660 ha         1 X50       0.115000
     34 H5         158.4660   137.0940   125.7980 ha         1 X50       0.134000
     35 H6         155.5170   135.5710   128.9530 h1         1 X50       0.078200
     36 H7         157.0920   135.3390   129.6980 h1         1 X50       0.078200
     37 H8         155.6630   140.5930   128.9120 h1         1 X50       0.034700
     38 H9         154.3370   139.9590   129.8980 h1         1 X50       0.034700
     39 H10        158.1970   139.5740   131.5540 h1         1 X50       0.040700
     40 H11        158.1110   140.2530   129.9250 h1         1 X50       0.040700
     41 H12        150.4680   136.4830   126.1950 hc         1 X50       0.031033
     42 H13        151.7710   137.6860   126.2630 hc         1 X50       0.031033
     43 H14        150.9780   137.3220   124.7140 hc         1 X50       0.031033
     44 H15        152.6560   135.3690   126.3710 hc         1 X50       0.053700
     45 H16        150.9190   134.1720   125.1090 hc         1 X50       0.031033
     46 H17        151.4320   134.9490   123.5960 hc         1 X50       0.031033
     47 H18        152.5220   133.8220   124.4330 hc         1 X50       0.031033
     48 H19        152.8100   137.0290   122.7500 h4         1 X50       0.039800
     49 H20        156.6230   140.6290   124.0950 ha         1 X50       0.114000
     50 H21        157.7020   142.0080   128.0380 ha         1 X50       0.115000
     51 H22        160.2560   139.2130   125.9720 ha         1 X50       0.114000
     52 H23        155.9870   138.5840   127.9310 hc         1 X50       0.068200
     53 H24        154.5400   137.9920   128.7240 hc         1 X50       0.068200
     54 H25        158.2820   138.2240   128.9870 h1         1 X50       0.032700
     55 H26        157.0630   138.2520   122.5830 hn         1 X50       0.529000
     56 H27        158.1820   136.1970   127.6750 hn         1 X50       0.494000
     57 H28        156.1960   140.8820   131.1850 hn         1 X50       0.422000
     58 H30        155.7660   138.1700   131.3290 ho         1 X50       0.475000
     59 H31        159.5240   137.7410   130.8790 ho         1 X50       0.437000
     60 C02        152.3740   135.7780   125.3920 c3         1 X50       0.035500
@<TRIPOS>BOND
     1     1    14 1   
     2     1    24 1   
     3     1    30 1   
     4     1    31 1   
     5     2    15 ar  
     6     2    16 ar  
     7     2    32 1   
     8     3    16 ar  
     9     3    17 ar  
    10     3    33 1   
    11     4    13 2   
    12     4    18 1   
    13     4    34 1   
    14     5     6 1   
    15     5    25 1   
    16     5    35 1   
    17     5    36 1   
    18     6    19 1   
    19     6    20 1   
    20     6    28 1   
    21     7    19 1   
    22     7    26 1   
    23     7    37 1   
    24     7    38 1   
    25     8    20 1   
    26     8    26 1   
    27     8    39 1   
    28     8    40 1   
    29     9    41 1   
    30     9    42 1   
    31     9    43 1   
    32     9    60 1   
    33    10    45 1   
    34    10    46 1   
    35    10    47 1   
    36    10    60 1   
    37    11    12 1   
    38    11    21 2   
    39    11    60 1   
    40    12    22 2   
    41    12    48 1   
    42    13    23 1   
    43    13    24 1   
    44    14    15 ar  
    45    14    17 ar  
    46    15    49 1   
    47    16    50 1   
    48    17    51 1   
    49    18    25 1   
    50    18    27 2   
    51    19    52 1   
    52    19    53 1   
    53    20    29 1   
    54    20    54 1   
    55    21    23 1   
    56    21    27 1   
    57    22    23 1   
    58    24    55 1   
    59    25    56 1   
    60    26    57 1   
    61    28    58 1   
    62    29    59 1   
    63    44    60 1   
@<TRIPOS>SUBSTRUCTURE
     1 X50         1 TEMP              0 ****  ****    0 ROOT
