@<TRIPOS>MOLECULE
X51
   26    25     1     0     0
SMALL
No Charge or Current Charge


@<TRIPOS>ATOM
      1 C01         18.4750    40.7940    35.3070 c3         1 X51      -0.150100
      2 C02         19.6520    40.3430    34.4400 c3         1 X51       0.639200
      3 C06         22.1530    40.1530    34.4100 c3         1 X51       0.180800
      4 C07         23.3330    40.1550    35.4020 c3         1 X51      -0.082400
      5 C08         24.7010    39.9510    34.7120 c3         1 X51      -0.078400
      6 C09         25.8790    39.9550    35.7070 c3         1 X51       0.149800
      7 N05         20.8770    40.3510    35.1520 n7         1 X51      -0.963400
      8 N10         27.1690    39.7610    35.0190 n8         1 X51      -0.996200
      9 O03         19.5550    39.0380    34.0990 oh         1 X51      -0.648000
     10 O04         19.7780    41.1030    33.2920 oh         1 X51      -0.648000
     11 H1          18.4090    40.1870    36.2180 hc         1 X51       0.052033
     12 H2          18.5900    41.8430    35.6020 hc         1 X51       0.052033
     13 H3          17.5290    40.6910    34.7630 hc         1 X51       0.052033
     14 H4          22.1550    39.1980    33.8650 h1         1 X51       0.042700
     15 H5          22.3120    40.9550    33.6750 h1         1 X51       0.042700
     16 H6          23.3450    41.1070    35.9470 hc         1 X51       0.040700
     17 H7          23.1820    39.3600    36.1430 hc         1 X51       0.040700
     18 H8          24.6890    38.9990    34.1670 hc         1 X51       0.047200
     19 H9          24.8510    40.7460    33.9710 hc         1 X51       0.047200
     20 H10         25.9080    40.9140    36.2430 h1         1 X51       0.026200
     21 H11         25.7470    39.1490    36.4420 h1         1 X51       0.026200
     22 H12         20.9220    41.2840    35.5670 hn         1 X51       0.427000
     23 H14         27.9180    39.7100    35.7210 hn         1 X51       0.392000
     24 H15         27.1800    38.8290    34.5880 hn         1 X51       0.392000
     25 H17         20.4250    38.7860    34.4610 ho         1 X51       0.457500
     26 H18         18.8700    41.1450    32.9350 ho         1 X51       0.457500
@<TRIPOS>BOND
     1     1     2 1   
     2     1    11 1   
     3     1    12 1   
     4     1    13 1   
     5     2     7 1   
     6     2     9 1   
     7     2    10 1   
     8     3     4 1   
     9     3     7 1   
    10     3    14 1   
    11     3    15 1   
    12     4     5 1   
    13     4    16 1   
    14     4    17 1   
    15     5     6 1   
    16     5    18 1   
    17     5    19 1   
    18     6     8 1   
    19     6    20 1   
    20     6    21 1   
    21     7    22 1   
    22     8    23 1   
    23     8    24 1   
    24     9    25 1   
    25    10    26 1   
@<TRIPOS>SUBSTRUCTURE
     1 X51         1 TEMP              0 ****  ****    0 ROOT
