@<TRIPOS>MOLECULE
X51
   26    25     1     0     0
SMALL
bcc


@<TRIPOS>ATOM
      1 C01         18.5270    40.6850    35.2510 c3         1 X51      -0.150100
      2 C02         19.7010    40.1940    34.4030 c3         1 X51       0.592800
      3 C06         22.1730    40.2400    34.4170 c3         1 X51       0.180800
      4 C07         23.3390    40.2020    35.3950 c3         1 X51      -0.082400
      5 C08         24.6800    40.0230    34.6970 c3         1 X51      -0.078400
      6 C09         25.8450    39.9750    35.6730 c3         1 X51       0.149800
      7 N05         20.9190    40.4190    35.1300 n7         1 X51      -0.908200
      8 N10         27.1080    39.7920    34.9720 n8         1 X51      -0.885800
      9 O03         19.5770    38.8340    34.1020 oh         1 X51      -0.585800
     10 O04         19.6670    40.7720    33.1210 oh         1 X51      -0.585800
     11 H1          18.5170    40.1920    36.2230 hc         1 X51       0.052033
     12 H2          18.5840    41.7610    35.4270 hc         1 X51       0.052033
     13 H3          17.5840    40.4740    34.7470 hc         1 X51       0.052033
     14 H4          22.1360    39.2940    33.8740 h1         1 X51       0.042700
     15 H5          22.3560    41.0230    33.6690 h1         1 X51       0.042700
     16 H6          23.3540    41.1300    35.9790 hc         1 X51       0.040700
     17 H7          23.1780    39.3900    36.1100 hc         1 X51       0.040700
     18 H8          24.6630    39.0970    34.1120 hc         1 X51       0.047200
     19 H9          24.8440    40.8370    33.9840 hc         1 X51       0.047200
     20 H10         25.8910    40.9210    36.2190 h1         1 X51       0.026200
     21 H11         25.6440    39.1970    36.4250 h1         1 X51       0.026200
     22 H12         20.9030    41.3180    35.5960 hn         1 X51       0.371800
     23 H14         27.8680    39.7910    35.6390 hn         1 X51       0.336800
     24 H15         27.1200    38.8720    34.5470 hn         1 X51       0.336800
     25 H17         19.7270    38.3430    34.9170 ho         1 X51       0.418500
     26 H18         19.6990    41.7290    33.2200 ho         1 X51       0.418500
@<TRIPOS>BOND
     1     1     2 1   
     2     1    11 1   
     3     1    12 1   
     4     1    13 1   
     5     2     7 1   
     6     2     9 1   
     7     2    10 1   
     8     3     4 1   
     9     3     7 1   
    10     3    14 1   
    11     3    15 1   
    12     4     5 1   
    13     4    16 1   
    14     4    17 1   
    15     5     6 1   
    16     5    18 1   
    17     5    19 1   
    18     6     8 1   
    19     6    20 1   
    20     6    21 1   
    21     7    22 1   
    22     8    23 1   
    23     8    24 1   
    24     9    25 1   
    25    10    26 1   
@<TRIPOS>SUBSTRUCTURE
     1 X51         1 TEMP              0 ****  ****    0 ROOT
