@<TRIPOS>MOLECULE
X52
   60    61     1     0     0
SMALL
bcc


@<TRIPOS>ATOM
      1 C01        -44.0900    -7.2730    31.3960 c3         1 X52      -0.085100
      2 C02        -44.7260    -7.7210    30.0790 c3         1 X52      -0.053100
      3 C03        -44.0210    -8.9170    29.5110 ca         1 X52       0.098700
      4 C04        -44.4130   -10.2170    29.8400 ca         1 X52      -0.247300
      5 C05        -45.4180   -10.3510    30.8320 cg         1 X52       0.256800
      6 C07        -43.7070   -11.3280    29.2780 ca         1 X52       0.773200
      7 C09        -43.1610   -13.6680    28.9820 c3         1 X52       0.234800
      8 C10        -43.2510   -14.0080    27.4980 c3         1 X52       0.138800
      9 C12        -44.7290   -15.9280    27.4330 c3         1 X52       0.141100
     10 C13        -45.3830   -13.0240    29.8680 c3         1 X52       0.209100
     11 C15        -42.1970    -9.8980    28.2840 ca         1 X52       0.631600
     12 C17        -40.2640   -11.3830    26.9360 c3         1 X52       0.050000
     13 C18        -39.2080   -11.3010    25.8770 ca         1 X52      -0.083300
     14 C19        -37.8620   -11.2020    26.2150 ca         1 X52      -0.100000
     15 C20        -36.8920   -11.1090    25.2290 ca         1 X52      -0.118000
     16 C21        -37.2590   -11.0980    23.8900 ca         1 X52       0.131600
     17 C24        -33.9260    -9.6860    22.6980 c3         1 X52      -0.236300
     18 C27        -36.2660   -12.0430    21.8370 c3         1 X52       0.202100
     19 C28        -38.6020   -11.1920    23.5430 ca         1 X52      -0.118000
     20 C29        -39.5660   -11.2960    24.5320 ca         1 X52      -0.100000
     21 C30        -42.9080    -8.7480    28.6900 ca         1 X52      -0.217300
     22 C31        -42.4570    -7.4610    28.3070 cg         1 X52       0.249800
     23 N06        -46.2110   -10.3910    31.6710 n1         1 X52      -0.388800
     24 N08        -44.0720   -12.6070    29.4050 nh         1 X52      -0.751300
     25 N11        -44.5470   -14.5270    27.1120 n7         1 X52      -0.814200
     26 N14        -42.5870   -11.1080    28.5720 nb         1 X52      -0.813000
     27 N22        -36.2490   -11.0330    22.8910 nh         1 X52      -0.646900
     28 N32        -42.0740    -6.4210    27.9860 n1         1 X52      -0.361800
     29 O25        -36.1900    -8.5760    23.4540 o          1 X52      -0.601300
     30 O26        -35.9290    -9.2770    21.0600 o          1 X52      -0.601300
     31 S16        -40.7480    -9.6710    27.3360 ss         1 X52      -0.261400
     32 S23        -35.6790    -9.5210    22.4740 s6         1 X52       1.229900
     33 H1         -44.6120    -6.3980    31.7800 hc         1 X52       0.043033
     34 H2         -44.1440    -8.0550    32.1530 hc         1 X52       0.043033
     35 H3         -43.0420    -7.0060    31.2610 hc         1 X52       0.043033
     36 H4         -44.6900    -6.9020    29.3600 hc         1 X52       0.064200
     37 H5         -45.7820    -7.9440    30.2340 hc         1 X52       0.064200
     38 H6         -43.3890   -14.5420    29.5930 h1         1 X52       0.058700
     39 H7         -42.1370   -13.3820    29.2160 h1         1 X52       0.058700
     40 H8         -42.4290   -14.7060    27.2750 h1         1 X52       0.043200
     41 H9         -43.0570   -13.1010    26.9240 h1         1 X52       0.043200
     42 H10        -45.6820   -16.2750    27.0350 h1         1 X52       0.030033
     43 H11        -43.9380   -16.5810    27.0380 h1         1 X52       0.030033
     44 H12        -44.7610   -16.0740    28.5140 h1         1 X52       0.030033
     45 H13        -46.1610   -12.3630    29.4920 h1         1 X52       0.055033
     46 H14        -45.5850   -14.0110    29.4660 h1         1 X52       0.055033
     47 H15        -45.4450   -13.0760    30.9550 h1         1 X52       0.055033
     48 H16        -41.1450   -11.9130    26.5770 h1         1 X52       0.080200
     49 H17        -39.9040   -11.8750    27.8390 h1         1 X52       0.080200
     50 H18        -37.5660   -11.2100    27.2570 ha         1 X52       0.139500
     51 H19        -35.8450   -11.0530    25.4990 ha         1 X52       0.140500
     52 H20        -33.4620    -8.7420    22.4170 h1         1 X52       0.102367
     53 H21        -33.7230    -9.9110    23.7420 h1         1 X52       0.102367
     54 H22        -33.5470   -10.4820    22.0620 h1         1 X52       0.102367
     55 H23        -36.3970   -13.0150    22.3050 h1         1 X52       0.048700
     56 H24        -37.0610   -11.8910    21.1050 h1         1 X52       0.048700
     57 H25        -35.3120   -12.0600    21.3120 h1         1 X52       0.048700
     58 H26        -38.9010   -11.1850    22.5020 ha         1 X52       0.140500
     59 H27        -40.6110   -11.3700    24.2530 ha         1 X52       0.139500
     60 H28        -44.6690   -14.3970    26.1180 hn         1 X52       0.362800
@<TRIPOS>BOND
     1     1     2 1   
     2     1    33 1   
     3     1    34 1   
     4     1    35 1   
     5     2     3 1   
     6     2    36 1   
     7     2    37 1   
     8     3     4 ar  
     9     3    21 ar  
    10     4     5 1   
    11     4     6 ar  
    12     5    23 3   
    13     6    24 1   
    14     6    26 ar  
    15     7     8 1   
    16     7    24 1   
    17     7    38 1   
    18     7    39 1   
    19     8    25 1   
    20     8    40 1   
    21     8    41 1   
    22     9    25 1   
    23     9    42 1   
    24     9    43 1   
    25     9    44 1   
    26    10    24 1   
    27    10    45 1   
    28    10    46 1   
    29    10    47 1   
    30    11    21 ar  
    31    11    26 ar  
    32    11    31 1   
    33    12    13 1   
    34    12    31 1   
    35    12    48 1   
    36    12    49 1   
    37    13    14 ar  
    38    13    20 ar  
    39    14    15 ar  
    40    14    50 1   
    41    15    16 ar  
    42    15    51 1   
    43    16    19 ar  
    44    16    27 1   
    45    17    32 1   
    46    17    52 1   
    47    17    53 1   
    48    17    54 1   
    49    18    27 1   
    50    18    55 1   
    51    18    56 1   
    52    18    57 1   
    53    19    20 ar  
    54    19    58 1   
    55    20    59 1   
    56    21    22 1   
    57    22    28 3   
    58    25    60 1   
    59    27    32 1   
    60    29    32 2   
    61    30    32 2   
@<TRIPOS>SUBSTRUCTURE
     1 X52         1 TEMP              0 ****  ****    0 ROOT
