@<TRIPOS>MOLECULE
X52
   60    61     1     0     0
SMALL
No Charge or Current Charge


@<TRIPOS>ATOM
      1 C01        -44.1520    -7.3600    31.8610 c3         1 X52      -0.085100
      2 C02        -44.8010    -7.5660    30.4770 c3         1 X52      -0.053100
      3 C03        -44.1540    -8.7250    29.6930 ca         1 X52       0.098700
      4 C04        -44.6340   -10.0520    29.8070 ca         1 X52      -0.182000
      5 C05        -45.7160   -10.3850    30.6880 cg         1 X52       0.346000
      6 C07        -44.0020   -11.0670    29.0690 ca         1 X52       0.707900
      7 C09        -43.4070   -13.4780    29.4220 c3         1 X52       0.234800
      8 C10        -42.8200   -14.2790    28.2120 c3         1 X52       0.138800
      9 C12        -44.2280   -16.3650    28.3540 c3         1 X52       0.141100
     10 C13        -45.6720   -12.8280    28.4760 c3         1 X52       0.209100
     11 C15        -42.4720    -9.6070    28.1700 ca         1 X52       0.566300
     12 C17        -40.6980   -11.1130    26.4770 c3         1 X52       0.097900
     13 C18        -39.5000   -11.1070    25.5410 ca         1 X52      -0.083300
     14 C19        -38.2010   -11.2960    26.0470 ca         1 X52      -0.082000
     15 C20        -37.0950   -11.2880    25.1800 ca         1 X52      -0.100000
     16 C21        -37.2680   -11.0880    23.7980 ca         1 X52       0.270000
     17 C24        -33.7830   -10.0760    21.8230 c3         1 X52      -0.347100
     18 C27        -36.1950   -11.8820    21.6870 c3         1 X52       0.202100
     19 C28        -38.5700   -10.9040    23.2950 ca         1 X52      -0.100000
     20 C29        -39.6790   -10.9100    24.1590 ca         1 X52      -0.082000
     21 C30        -43.0360    -8.5120    28.8500 ca         1 X52      -0.152000
     22 C31        -42.4520    -7.2120    28.6870 cg         1 X52       0.339000
     23 N06        -46.5990   -10.6380    31.4080 n1         1 X52      -0.478000
     24 N08        -44.3940   -12.4120    29.0950 nh         1 X52      -0.751300
     25 N11        -43.7780   -15.2120    27.5470 n7         1 X52      -0.869400
     26 N14        -42.9470   -10.8560    28.2800 nb         1 X52      -0.813000
     27 N22        -36.1600   -11.0900    22.9320 nh         1 X52      -0.785300
     28 N32        -41.9900    -6.1470    28.5660 n1         1 X52      -0.451000
     29 O25        -34.5240    -9.6810    24.3300 o          1 X52      -0.530500
     30 O26        -35.8690    -8.5830    22.4760 o          1 X52      -0.530500
     31 S16        -41.0470    -9.4040    27.0940 ss         1 X52      -0.309300
     32 S23        -35.0980    -9.7230    22.9820 s6         1 X52       1.199100
     33 H1         -44.6350    -6.5310    32.3910 hc         1 X52       0.043033
     34 H2         -44.2520    -8.2640    32.4750 hc         1 X52       0.043033
     35 H3         -43.0850    -7.1280    31.7600 hc         1 X52       0.043033
     36 H4         -44.7430    -6.6250    29.9160 hc         1 X52       0.064200
     37 H5         -45.8770    -7.7280    30.6110 hc         1 X52       0.064200
     38 H6         -43.8530   -14.1810    30.1370 h1         1 X52       0.058700
     39 H7         -42.5600   -13.0220    29.9510 h1         1 X52       0.058700
     40 H8         -41.9470   -14.8420    28.5710 h1         1 X52       0.043200
     41 H9         -42.4440   -13.5510    27.4800 h1         1 X52       0.043200
     42 H10        -44.8990   -17.0050    27.7670 h1         1 X52       0.030033
     43 H11        -43.3740   -16.9740    28.6780 h1         1 X52       0.030033
     44 H12        -44.7760   -16.0360    29.2470 h1         1 X52       0.030033
     45 H13        -46.4290   -12.0370    28.5550 h1         1 X52       0.055033
     46 H14        -45.5280   -13.0550    27.4120 h1         1 X52       0.055033
     47 H15        -46.0690   -13.7220    28.9740 h1         1 X52       0.055033
     48 H16        -41.5830   -11.4940    25.9520 h1         1 X52       0.080200
     49 H17        -40.5010   -11.7710    27.3330 h1         1 X52       0.080200
     50 H18        -38.0470   -11.4500    27.1130 ha         1 X52       0.121500
     51 H19        -36.0990   -11.4480    25.5810 ha         1 X52       0.122500
     52 H20        -33.0680    -9.2500    21.8850 h1         1 X52       0.102367
     53 H21        -33.3200   -11.0200    22.1260 h1         1 X52       0.102367
     54 H22        -34.2190   -10.1410    20.8220 h1         1 X52       0.102367
     55 H23        -36.9800   -12.6480    21.7410 h1         1 X52       0.048700
     56 H24        -36.4010   -11.2410    20.8190 h1         1 X52       0.048700
     57 H25        -35.2420   -12.4040    21.5300 h1         1 X52       0.048700
     58 H26        -38.7220   -10.7440    22.2310 ha         1 X52       0.122500
     59 H27        -40.6780   -10.7590    23.7530 ha         1 X52       0.121500
     60 H28        -43.3190   -15.5830    26.7040 hn         1 X52       0.418000
@<TRIPOS>BOND
     1     1     2 1   
     2     1    33 1   
     3     1    34 1   
     4     1    35 1   
     5     2     3 1   
     6     2    36 1   
     7     2    37 1   
     8     3     4 ar  
     9     3    21 ar  
    10     4     5 1   
    11     4     6 ar  
    12     5    23 3   
    13     6    24 1   
    14     6    26 ar  
    15     7     8 1   
    16     7    24 1   
    17     7    38 1   
    18     7    39 1   
    19     8    25 1   
    20     8    40 1   
    21     8    41 1   
    22     9    25 1   
    23     9    42 1   
    24     9    43 1   
    25     9    44 1   
    26    10    24 1   
    27    10    45 1   
    28    10    46 1   
    29    10    47 1   
    30    11    21 ar  
    31    11    26 ar  
    32    11    31 1   
    33    12    13 1   
    34    12    31 1   
    35    12    48 1   
    36    12    49 1   
    37    13    14 ar  
    38    13    20 ar  
    39    14    15 ar  
    40    14    50 1   
    41    15    16 ar  
    42    15    51 1   
    43    16    19 ar  
    44    16    27 1   
    45    17    32 1   
    46    17    52 1   
    47    17    53 1   
    48    17    54 1   
    49    18    27 1   
    50    18    55 1   
    51    18    56 1   
    52    18    57 1   
    53    19    20 ar  
    54    19    58 1   
    55    20    59 1   
    56    21    22 1   
    57    22    28 3   
    58    25    60 1   
    59    27    32 1   
    60    29    32 2   
    61    30    32 2   
@<TRIPOS>SUBSTRUCTURE
     1 X52         1 TEMP              0 ****  ****    0 ROOT
