@<TRIPOS>MOLECULE
X53
  130   138     1     0     0
SMALL
No Charge or Current Charge


@<TRIPOS>ATOM
      1 C5         -15.5950    38.3610    16.2580 ca         1 X53       0.396900
      2 C7         -16.5050    35.8460    18.7830 cc         1 X53       0.487000
      3 C8         -14.5920    40.3410    15.0090 c3         1 X53       0.240800
      4 C10        -13.5100    39.5220    17.1560 c3         1 X53       0.242500
      5 N12        -13.9520    42.0580    17.5480 n3         1 X53      -0.740600
      6 C13        -14.4560    42.6180    16.2680 c3         1 X53       0.187800
      7 C15        -12.3560    38.5180    16.9360 c3         1 X53      -0.106100
      8 C17        -17.0760    34.4020    20.1800 cd         1 X53       0.483300
      9 C20        -17.9050    33.5420    22.4450 cc         1 X53      -0.035300
     10 C21        -17.5350    32.6520    23.4290 cd         1 X53      -0.187300
     11 C22        -18.5060    34.7350    22.9820 cc         1 X53      -0.160000
     12 C28        -13.4940    43.1080    18.4930 c3         1 X53       0.187800
     13 C1         -17.4710    37.3240    15.4220 ca         1 X53       0.145900
     14 C11        -12.9420    40.9680    17.3460 c3         1 X53       0.164800
     15 C14        -15.2930    41.6570    15.3940 c3         1 X53      -0.095400
     16 C2         -17.5180    36.4930    16.5500 ca         1 X53      -0.249000
     17 C23        -18.5860    34.7360    24.3530 cd         1 X53       0.254000
     18 C25        -18.9880    35.8040    22.1720 cg         1 X53       0.352000
     19 C29        -13.5150    42.6330    19.9640 c3         1 X53      -0.082400
     20 C3         -16.5270    36.6600    17.5430 ca         1 X53       0.128000
     21 C30        -12.9670    43.6650    20.9810 c3         1 X53      -0.079400
     22 C31        -13.0860    43.1800    22.4430 c3         1 X53       0.169600
     23 C32        -16.8980    31.3020    23.1830 c6         1 X53      -0.005100
     24 C33        -17.1310    30.8470    21.7280 c6         1 X53      -0.069400
     25 C34        -16.8120    32.0040    20.7530 c6         1 X53      -0.071400
     26 C35        -17.7390    33.2530    20.9430 c6         1 X53      -0.002000
     27 C36        -19.1570    32.9330    20.3580 c3         1 X53      -0.077100
     28 C38        -12.7220    41.0080    23.4790 cc         1 X53       0.507300
     29 C41        -13.1460    39.0690    24.3320 cd         1 X53       0.192300
     30 C42        -12.6120    39.6460    23.2250 cc         1 X53      -0.210000
     31 C43        -13.4150    37.6210    24.6810 c3         1 X53      -0.167000
     32 C44        -12.7970    36.6240    23.6670 c          1 X53       0.622100
     33 C45        -14.9350    37.3430    24.9220 c3         1 X53      -0.042700
     34 C46        -15.1870    35.9310    25.5010 c3         1 X53      -0.094600
     35 C47        -15.8260    37.6000    23.6820 c3         1 X53      -0.094600
     36 C50        -11.5570    34.4520    23.2170 c5         1 X53       0.032700
     37 C51        -11.0200    33.4120    24.2430 c5         1 X53      -0.084400
     38 C52        -10.3540    34.3100    25.3140 c5         1 X53       0.154300
     39 C53        -11.4190    35.4390    25.4800 c5         1 X53       0.073000
     40 C54        -12.6580    33.7690    22.3430 c          1 X53       0.605100
     41 C58        -12.8210    32.6200    20.1120 c3         1 X53       0.151300
     42 C59        -13.2700    31.1770    20.3550 ca         1 X53      -0.088300
     43 C60        -13.0530    30.5010    21.5760 ca         1 X53      -0.105000
     44 C61        -13.5230    29.1890    21.7570 ca         1 X53      -0.092000
     45 C62        -14.2040    28.5250    20.7220 ca         1 X53      -0.010000
     46 C63        -14.4230    29.1950    19.5050 ca         1 X53      -0.092000
     47 C64        -13.9570    30.5080    19.3230 ca         1 X53      -0.105000
     48 C65        -14.7180    27.1750    20.9410 cc         1 X53      -0.184000
     49 C66        -14.4240    26.1220    20.0990 cd         1 X53       0.301300
     50 C68        -15.6780    25.0880    21.6200 cc         1 X53       0.413300
     51 C70        -13.5690    26.1520    18.8600 c3         1 X53      -0.121400
     52 N16        -17.4050    34.8340    18.9770 nc         1 X53      -0.707000
     53 N19        -15.6430    36.0520    19.7650 nd         1 X53      -0.323300
     54 N26        -19.1410    35.7260    25.1370 nv         1 X53      -1.074000
     55 N27        -19.3740    36.6970    21.5270 n1         1 X53      -0.476000
     56 N39        -13.2500    41.3470    24.6360 nd         1 X53      -0.460300
     57 N4         -15.5680    37.6000    17.3750 nb         1 X53      -0.232000
     58 N48        -12.0380    35.5240    24.1340 n          1 X53      -0.395800
     59 N6         -16.5150    38.2590    15.2750 nb         1 X53      -0.248000
     60 N67        -14.9920    24.9180    20.4920 nd         1 X53      -0.636000
     61 N9         -14.5750    39.3500    16.1160 nh         1 X53      -0.759300
     62 O18        -16.0180    35.0790    20.7130 os         1 X53      -0.076700
     63 O37        -12.3630    41.9390    22.5470 os         1 X53      -0.447300
     64 O40        -13.5230    40.0530    25.2250 os         1 X53      -0.087700
     65 O49        -13.0010    36.7460    22.4660 o          1 X53      -0.590100
     66 O55         -9.0920    34.8110    24.8560 oh         1 X53      -0.652000
     67 O57        -13.8550    33.6860    22.5830 o          1 X53      -0.591100
     68 S24        -17.8890    33.2560    25.0510 ss         1 X53       0.177000
     69 S69        -15.6800    26.6940    22.3040 ss         1 X53      -0.031400
     70 H82        -15.0930    39.9260    14.1240 h1         1 X53       0.054200
     71 H81        -13.5680    40.5600    14.6770 h1         1 X53       0.054200
     72 H10        -13.9420    39.2960    18.1400 h1         1 X53       0.095700
     73 H13        -15.0920    43.4890    16.4760 h1         1 X53       0.025200
     74 H84        -13.6110    42.9850    15.6700 h1         1 X53       0.025200
     75 H15        -12.7320    37.4890    16.9200 hc         1 X53       0.041033
     76 H86        -11.8500    38.7130    15.9830 hc         1 X53       0.041033
     77 H87        -11.6170    38.5950    17.7420 hc         1 X53       0.041033
     78 H28        -12.4790    43.4380    18.2280 h1         1 X53       0.025700
     79 H88        -14.1480    43.9880    18.4250 h1         1 X53       0.025700
     80 H1         -18.2100    37.2440    14.6260 h4         1 X53       0.019100
     81 H11        -12.2570    40.9180    18.2010 h1         1 X53       0.035700
     82 H83        -12.3030    41.2130    16.4860 h1         1 X53       0.035700
     83 H14        -15.5570    42.1880    14.4720 hc         1 X53       0.055200
     84 H85        -16.2370    41.4290    15.9020 hc         1 X53       0.055200
     85 H2         -18.3040    35.7490    16.6510 ha         1 X53       0.153000
     86 H29        -14.5500    42.3830    20.2290 hc         1 X53       0.060200
     87 H89        -12.9400    41.7070    20.0620 hc         1 X53       0.060200
     88 H30        -11.9150    43.8820    20.7550 hc         1 X53       0.048200
     89 H9A        -13.5180    44.6080    20.8760 hc         1 X53       0.048200
     90 H31        -12.6810    43.9310    23.1340 h1         1 X53       0.050700
     91 H9B        -14.1500    43.0350    22.6750 h1         1 X53       0.050700
     92 H32        -15.8180    31.3630    23.3770 hc         1 X53       0.063200
     93 H9C        -17.2950    30.5480    23.8760 hc         1 X53       0.063200
     94 H33        -16.4960    29.9800    21.5080 hc         1 X53       0.044200
     95 H9D        -18.1670    30.5090    21.6000 hc         1 X53       0.044200
     96 H34        -15.7680    32.3030    20.9140 hc         1 X53       0.056700
     97 H9E        -16.8640    31.6450    19.7160 hc         1 X53       0.056700
     98 H36        -19.6720    32.1630    20.9420 hc         1 X53       0.051700
     99 H9F        -19.8040    33.8170    20.3520 hc         1 X53       0.051700
    100 H9G        -19.0940    32.5740    19.3240 hc         1 X53       0.051700
    101 H42        -12.2340    39.1930    22.3190 ha         1 X53       0.182000
    102 H43        -12.9520    37.4510    25.6560 hc         1 X53       0.071700
    103 H45        -15.2680    38.0500    25.6940 hc         1 X53       0.055700
    104 H46        -16.2350    35.8240    25.8020 hc         1 X53       0.043200
    105 H9H        -14.9640    35.1510    24.7630 hc         1 X53       0.043200
    106 H9I        -14.5690    35.7550    26.3890 hc         1 X53       0.043200
    107 H47        -16.8860    37.5270    23.9520 hc         1 X53       0.043200
    108 H9J        -15.6560    38.6020    23.2710 hc         1 X53       0.043200
    109 H9K        -15.6320    36.8650    22.8930 hc         1 X53       0.043200
    110 H50        -10.7590    34.8380    22.5690 h1         1 X53       0.078700
    111 H51        -11.8380    32.8300    24.6860 hc         1 X53       0.071700
    112 H9L        -10.3220    32.6970    23.7940 hc         1 X53       0.071700
    113 H52        -10.2130    33.7610    26.2560 h1         1 X53       0.053700
    114 H9M        -12.1690    35.1620    26.2310 h1         1 X53       0.056700
    115 H53        -10.9560    36.3870    25.7850 h1         1 X53       0.056700
    116 H9N        -12.1870    32.6430    19.2160 h1         1 X53       0.063200
    117 H58        -13.7040    33.2370    19.8990 h1         1 X53       0.063200
    118 H60        -12.5290    30.9820    22.3970 ha         1 X53       0.112000
    119 H61        -13.3560    28.6860    22.7060 ha         1 X53       0.118500
    120 H63        -14.9720    28.7080    18.7040 ha         1 X53       0.118500
    121 H64        -14.1440    31.0140    18.3780 ha         1 X53       0.112000
    122 H68        -16.2150    24.3000    22.1330 h5         1 X53       0.053100
    123 H9P        -13.1570    25.1610    18.6350 hc         1 X53       0.051700
    124 H70        -14.1520    26.4760    17.9910 hc         1 X53       0.051700
    125 H9O        -12.7230    26.8390    18.9780 hc         1 X53       0.051700
    126 H9Q        -19.2680    35.5800    26.1380 hn         1 X53       0.484000
    127 H26        -19.6500    36.4990    24.7110 hn         1 X53       0.484000
    128 H56        -11.0740    33.3480    21.1090 hn         1 X53       0.320500
    129 H55         -8.6970    35.3190    25.5990 ho         1 X53       0.448000
    130 N56        -12.0750    33.2400    21.2100 ns         1 X53      -0.499900
@<TRIPOS>BOND
     1     1    57 ar  
     2     1    59 ar  
     3     1    61 1   
     4     2    20 1   
     5     2    52 1   
     6     2    53 2   
     7     3    15 1   
     8     3    61 1   
     9     3    70 1   
    10     3    71 1   
    11     4     7 1   
    12     4    14 1   
    13     4    61 1   
    14     4    72 1   
    15     5     6 1   
    16     5    12 1   
    17     5    14 1   
    18     6    15 1   
    19     6    73 1   
    20     6    74 1   
    21     7    75 1   
    22     7    76 1   
    23     7    77 1   
    24     8    26 1   
    25     8    52 2   
    26     8    62 1   
    27     9    10 2   
    28     9    11 1   
    29     9    26 1   
    30    10    23 1   
    31    10    68 1   
    32    11    17 2   
    33    11    18 1   
    34    12    19 1   
    35    12    78 1   
    36    12    79 1   
    37    13    16 ar  
    38    13    59 ar  
    39    13    80 1   
    40    14    81 1   
    41    14    82 1   
    42    15    83 1   
    43    15    84 1   
    44    16    20 ar  
    45    16    85 1   
    46    17    54 1   
    47    17    68 1   
    48    18    55 3   
    49    19    21 1   
    50    19    86 1   
    51    19    87 1   
    52    20    57 ar  
    53    21    22 1   
    54    21    88 1   
    55    21    89 1   
    56    22    63 1   
    57    22    90 1   
    58    22    91 1   
    59    23    24 1   
    60    23    92 1   
    61    23    93 1   
    62    24    25 1   
    63    24    94 1   
    64    24    95 1   
    65    25    26 1   
    66    25    96 1   
    67    25    97 1   
    68    26    27 1   
    69    27    98 1   
    70    27    99 1   
    71    27   100 1   
    72    28    30 1   
    73    28    56 2   
    74    28    63 1   
    75    29    30 2   
    76    29    31 1   
    77    29    64 1   
    78    30   101 1   
    79    31    32 1   
    80    31    33 1   
    81    31   102 1   
    82    32    58 1   
    83    32    65 2   
    84    33    34 1   
    85    33    35 1   
    86    33   103 1   
    87    34   104 1   
    88    34   105 1   
    89    34   106 1   
    90    35   107 1   
    91    35   108 1   
    92    35   109 1   
    93    36    37 1   
    94    36    40 1   
    95    36    58 1   
    96    36   110 1   
    97    37    38 1   
    98    37   111 1   
    99    37   112 1   
   100    38    39 1   
   101    38    66 1   
   102    38   113 1   
   103    39    58 1   
   104    39   114 1   
   105    39   115 1   
   106    40    67 2   
   107    40   130 1   
   108    41    42 1   
   109    41   116 1   
   110    41   117 1   
   111    41   130 1   
   112    42    43 ar  
   113    42    47 ar  
   114    43    44 ar  
   115    43   118 1   
   116    44    45 ar  
   117    44   119 1   
   118    45    46 ar  
   119    45    48 1   
   120    46    47 ar  
   121    46   120 1   
   122    47   121 1   
   123    48    49 2   
   124    48    69 1   
   125    49    51 1   
   126    49    60 1   
   127    50    60 2   
   128    50    69 1   
   129    50   122 1   
   130    51   123 1   
   131    51   124 1   
   132    51   125 1   
   133    53    62 1   
   134    54   126 1   
   135    54   127 1   
   136    56    64 1   
   137    66   129 1   
   138   128   130 1   
@<TRIPOS>SUBSTRUCTURE
     1 X53         1 TEMP              0 ****  ****    0 ROOT
