@<TRIPOS>MOLECULE
X53
  130   138     1     0     0
SMALL
abcg2


@<TRIPOS>ATOM
      1 C5         -16.4080    39.9460    16.1930 ca         1 X53       0.396900
      2 C7         -17.2490    37.1400    18.2970 cc         1 X53       0.487000
      3 C8         -15.3190    41.6880    14.8840 c3         1 X53       0.240800
      4 C10        -14.0270    40.3250    16.5390 c3         1 X53       0.242500
      5 N12        -13.8800    42.6980    17.3030 n3         1 X53      -0.740600
      6 C13        -14.3550    43.6180    16.2860 c3         1 X53       0.187800
      7 C15        -13.2600    39.2530    15.7740 c3         1 X53      -0.106100
      8 C17        -17.6000    35.3530    19.2850 cd         1 X53       0.483300
      9 C20        -18.0510    33.9260    21.2560 cc         1 X53      -0.035300
     10 C21        -17.5060    32.9020    21.9480 cd         1 X53      -0.187300
     11 C22        -18.7240    34.8770    22.1060 cc         1 X53      -0.160000
     12 C28        -13.1470    43.3320    18.3870 c3         1 X53       0.187800
     13 C1         -18.6230    39.5720    15.8620 ca         1 X53       0.145900
     14 C11        -13.1690    41.5740    16.7220 c3         1 X53       0.164800
     15 C14        -15.5330    43.0730    15.4860 c3         1 X53      -0.095400
     16 C2         -18.6110    38.4910    16.7320 ca         1 X53      -0.249000
     17 C23        -18.6570    34.5460    23.4480 cd         1 X53       0.254000
     18 C25        -19.3500    36.0550    21.6590 cg         1 X53       0.352000
     19 C29        -13.2510    42.5250    19.6740 c3         1 X53      -0.082400
     20 C3         -17.3860    38.2370    17.3280 ca         1 X53       0.128000
     21 C30        -12.3760    43.0870    20.7880 c3         1 X53      -0.079400
     22 C31        -12.5950    42.4050    22.1210 c3         1 X53       0.169600
     23 C32        -16.7640    31.7380    21.3840 c6         1 X53      -0.005100
     24 C33        -17.0640    31.6280    19.8930 c6         1 X53      -0.069400
     25 C34        -16.9620    32.9870    19.2150 c6         1 X53      -0.071400
     26 C35        -18.0170    33.9910    19.7480 c6         1 X53      -0.002000
     27 C36        -19.4050    33.6770    19.1760 c3         1 X53      -0.077100
     28 C38        -12.6870    40.1800    22.9110 cc         1 X53       0.507300
     29 C41        -13.1210    38.3360    23.9720 cd         1 X53       0.192300
     30 C42        -12.6400    38.7660    22.7830 cc         1 X53      -0.210000
     31 C43        -13.4190    37.0130    24.5960 c3         1 X53      -0.167000
     32 C44        -12.6820    35.8910    23.8840 c          1 X53       0.622100
     33 C45        -14.9570    36.7520    24.6390 c3         1 X53      -0.042700
     34 C46        -15.2900    35.5630    25.5320 c3         1 X53      -0.094600
     35 C47        -15.5980    36.5960    23.2670 c3         1 X53      -0.094600
     36 C50        -11.4740    33.8150    23.9510 c5         1 X53       0.032700
     37 C51        -11.0040    32.9200    25.1050 c5         1 X53      -0.084400
     38 C52        -10.7800    33.9020    26.2430 c5         1 X53       0.154300
     39 C53        -11.9640    34.8490    26.0760 c5         1 X53       0.073000
     40 C54        -12.4270    33.0600    23.0340 c          1 X53       0.605100
     41 C58        -12.5370    31.6840    21.0190 c3         1 X53       0.151300
     42 C59        -12.7720    30.2720    21.5060 ca         1 X53      -0.088300
     43 C60        -12.0850    29.7290    22.5840 ca         1 X53      -0.105000
     44 C61        -12.3050    28.4170    22.9780 ca         1 X53      -0.092000
     45 C62        -13.2190    27.6100    22.3010 ca         1 X53      -0.010000
     46 C63        -13.9130    28.1600    21.2210 ca         1 X53      -0.092000
     47 C64        -13.6880    29.4690    20.8320 ca         1 X53      -0.105000
     48 C65        -13.4550    26.2260    22.7150 cc         1 X53      -0.184000
     49 C66        -13.5160    25.0860    21.9590 cd         1 X53       0.301300
     50 C68        -13.8830    24.1790    23.9320 cc         1 X53       0.413300
     51 C70        -13.3140    24.9980    20.4830 c3         1 X53      -0.121400
     52 N16        -18.0700    36.0530    18.3080 nc         1 X53      -0.707000
     53 N19        -16.3350    37.1200    19.2180 nd         1 X53      -0.323300
     54 N26        -19.1960    35.1940    24.4960 nv         1 X53      -1.074000
     55 N27        -19.8600    37.0290    21.3010 n1         1 X53      -0.476000
     56 N39        -13.1490    40.5580    24.0680 nd         1 X53      -0.460300
     57 N4         -16.2970    38.9390    17.0720 nb         1 X53      -0.232000
     58 N48        -12.1280    34.9200    24.6290 n          1 X53      -0.395800
     59 N6         -17.5580    40.2980    15.5910 nb         1 X53      -0.248000
     60 N67        -13.7600    23.9410    22.6680 nd         1 X53      -0.636000
     61 N9         -15.2930    40.6380    15.8870 nh         1 X53      -0.759300
     62 O18        -16.5670    35.9470    19.8730 os         1 X53      -0.076700
     63 O37        -12.3110    41.0120    21.9570 os         1 X53      -0.447300
     64 O40        -13.4210    39.3940    24.7380 os         1 X53      -0.087700
     65 O49        -12.6260    35.8450    22.6620 o          1 X53      -0.590100
     66 O55         -9.5500    34.5480    26.0150 oh         1 X53      -0.652000
     67 O57        -13.6040    32.8900    23.3090 o          1 X53      -0.591100
     68 S24        -17.7820    33.0730    23.6590 ss         1 X53       0.177000
     69 S69        -13.7150    25.8240    24.3740 ss         1 X53      -0.031400
     70 H82        -16.1130    41.4750    14.1730 h1         1 X53       0.054200
     71 H81        -14.3850    41.6510    14.3180 h1         1 X53       0.054200
     72 H10        -14.2620    39.9470    17.5340 h1         1 X53       0.095700
     73 H13        -14.6760    44.5410    16.7720 h1         1 X53       0.025200
     74 H84        -13.5460    43.8980    15.5890 h1         1 X53       0.025200
     75 H15        -13.8390    38.3330    15.7040 hc         1 X53       0.041033
     76 H86        -13.0240    39.5880    14.7620 hc         1 X53       0.041033
     77 H87        -12.3200    39.0190    16.2750 hc         1 X53       0.041033
     78 H28        -12.0880    43.4980    18.1320 h1         1 X53       0.025700
     79 H88        -13.5750    44.3220    18.5620 h1         1 X53       0.025700
     80 H1         -19.5430    39.8640    15.3660 h4         1 X53       0.019100
     81 H11        -12.3420    41.2770    17.3710 h1         1 X53       0.035700
     82 H83        -12.6980    41.8580    15.7690 h1         1 X53       0.035700
     83 H14        -15.7420    43.7750    14.6730 hc         1 X53       0.055200
     84 H85        -16.4270    43.0460    16.1130 hc         1 X53       0.055200
     85 H2         -19.4950    37.9080    16.9390 ha         1 X53       0.153000
     86 H29        -14.2980    42.5120    19.9940 hc         1 X53       0.060200
     87 H89        -12.9740    41.4850    19.4840 hc         1 X53       0.060200
     88 H30        -11.3210    43.0290    20.5070 hc         1 X53       0.048200
     89 H9A        -12.5940    44.1480    20.9370 hc         1 X53       0.048200
     90 H31        -11.9440    42.8260    22.8920 h1         1 X53       0.050700
     91 H9B        -13.6310    42.5320    22.4500 h1         1 X53       0.050700
     92 H32        -15.6900    31.8670    21.5490 hc         1 X53       0.063200
     93 H9C        -17.0440    30.8140    21.8950 hc         1 X53       0.063200
     94 H33        -16.3590    30.9410    19.4240 hc         1 X53       0.044200
     95 H9D        -18.0590    31.2030    19.7460 hc         1 X53       0.044200
     96 H34        -15.9550    33.3810    19.3790 hc         1 X53       0.056700
     97 H9E        -17.0920    32.8900    18.1350 hc         1 X53       0.056700
     98 H36        -19.7220    32.6860    19.4950 hc         1 X53       0.051700
     99 H9F        -20.1540    34.3920    19.5160 hc         1 X53       0.051700
    100 H9G        -19.3900    33.6970    18.0870 hc         1 X53       0.051700
    101 H42        -12.3160    38.1960    21.9330 ha         1 X53       0.182000
    102 H43        -13.0960    37.0820    25.6380 hc         1 X53       0.071700
    103 H45        -15.3820    37.6410    25.1130 hc         1 X53       0.055700
    104 H46        -16.3720    35.4590    25.6220 hc         1 X53       0.043200
    105 H9H        -14.9040    34.6270    25.1260 hc         1 X53       0.043200
    106 H9I        -14.8900    35.6910    26.5390 hc         1 X53       0.043200
    107 H47        -16.6820    36.5860    23.3760 hc         1 X53       0.043200
    108 H9J        -15.3460    37.4130    22.5900 hc         1 X53       0.043200
    109 H9K        -15.3110    35.6590    22.7900 hc         1 X53       0.043200
    110 H50        -10.6170    34.1800    23.3760 h1         1 X53       0.078700
    111 H51        -11.7890    32.2160    25.3870 hc         1 X53       0.071700
    112 H9L        -10.1120    32.3490    24.8520 hc         1 X53       0.071700
    113 H52        -10.8080    33.4130    27.2220 h1         1 X53       0.053700
    114 H9M        -12.8510    34.4320    26.5580 h1         1 X53       0.056700
    115 H53        -11.7670    35.8270    26.5170 h1         1 X53       0.056700
    116 H9N        -11.9440    31.6530    20.1040 h1         1 X53       0.063200
    117 H58        -13.4920    32.1380    20.7470 h1         1 X53       0.063200
    118 H60        -11.3610    30.3250    23.1260 ha         1 X53       0.112000
    119 H61        -11.7460    28.0150    23.8140 ha         1 X53       0.118500
    120 H63        -14.6490    27.5650    20.6950 ha         1 X53       0.118500
    121 H64        -14.2440    29.8750    19.9940 ha         1 X53       0.112000
    122 H68        -14.0760    23.4170    24.6750 h5         1 X53       0.053100
    123 H9P        -12.7490    24.1010    20.2330 hc         1 X53       0.051700
    124 H70        -14.2670    24.9410    19.9530 hc         1 X53       0.051700
    125 H9O        -12.7740    25.8610    20.0980 hc         1 X53       0.051700
    126 H9Q        -18.8870    34.9740    25.4280 hn         1 X53       0.484000
    127 H26        -19.5050    36.1450    24.3690 hn         1 X53       0.484000
    128 H56        -10.8660    32.7220    21.7790 hn         1 X53       0.320500
    129 H55         -9.4220    35.2190    26.6930 ho         1 X53       0.448000
    130 N56        -11.8400    32.5330    21.9480 ns         1 X53      -0.499900
@<TRIPOS>BOND
     1     1    57 ar  
     2     1    59 ar  
     3     1    61 1   
     4     2    20 1   
     5     2    52 1   
     6     2    53 2   
     7     3    15 1   
     8     3    61 1   
     9     3    70 1   
    10     3    71 1   
    11     4     7 1   
    12     4    14 1   
    13     4    61 1   
    14     4    72 1   
    15     5     6 1   
    16     5    12 1   
    17     5    14 1   
    18     6    15 1   
    19     6    73 1   
    20     6    74 1   
    21     7    75 1   
    22     7    76 1   
    23     7    77 1   
    24     8    26 1   
    25     8    52 2   
    26     8    62 1   
    27     9    10 2   
    28     9    11 1   
    29     9    26 1   
    30    10    23 1   
    31    10    68 1   
    32    11    17 2   
    33    11    18 1   
    34    12    19 1   
    35    12    78 1   
    36    12    79 1   
    37    13    16 ar  
    38    13    59 ar  
    39    13    80 1   
    40    14    81 1   
    41    14    82 1   
    42    15    83 1   
    43    15    84 1   
    44    16    20 ar  
    45    16    85 1   
    46    17    54 1   
    47    17    68 1   
    48    18    55 3   
    49    19    21 1   
    50    19    86 1   
    51    19    87 1   
    52    20    57 ar  
    53    21    22 1   
    54    21    88 1   
    55    21    89 1   
    56    22    63 1   
    57    22    90 1   
    58    22    91 1   
    59    23    24 1   
    60    23    92 1   
    61    23    93 1   
    62    24    25 1   
    63    24    94 1   
    64    24    95 1   
    65    25    26 1   
    66    25    96 1   
    67    25    97 1   
    68    26    27 1   
    69    27    98 1   
    70    27    99 1   
    71    27   100 1   
    72    28    30 1   
    73    28    56 2   
    74    28    63 1   
    75    29    30 2   
    76    29    31 1   
    77    29    64 1   
    78    30   101 1   
    79    31    32 1   
    80    31    33 1   
    81    31   102 1   
    82    32    58 1   
    83    32    65 2   
    84    33    34 1   
    85    33    35 1   
    86    33   103 1   
    87    34   104 1   
    88    34   105 1   
    89    34   106 1   
    90    35   107 1   
    91    35   108 1   
    92    35   109 1   
    93    36    37 1   
    94    36    40 1   
    95    36    58 1   
    96    36   110 1   
    97    37    38 1   
    98    37   111 1   
    99    37   112 1   
   100    38    39 1   
   101    38    66 1   
   102    38   113 1   
   103    39    58 1   
   104    39   114 1   
   105    39   115 1   
   106    40    67 2   
   107    40   130 1   
   108    41    42 1   
   109    41   116 1   
   110    41   117 1   
   111    41   130 1   
   112    42    43 ar  
   113    42    47 ar  
   114    43    44 ar  
   115    43   118 1   
   116    44    45 ar  
   117    44   119 1   
   118    45    46 ar  
   119    45    48 1   
   120    46    47 ar  
   121    46   120 1   
   122    47   121 1   
   123    48    49 2   
   124    48    69 1   
   125    49    51 1   
   126    49    60 1   
   127    50    60 2   
   128    50    69 1   
   129    50   122 1   
   130    51   123 1   
   131    51   124 1   
   132    51   125 1   
   133    53    62 1   
   134    54   126 1   
   135    54   127 1   
   136    56    64 1   
   137    66   129 1   
   138   128   130 1   
@<TRIPOS>SUBSTRUCTURE
     1 X53         1 TEMP              0 ****  ****    0 ROOT
