@<TRIPOS>MOLECULE
X54
   37    36     1     0     0
SMALL
No Charge or Current Charge


@<TRIPOS>ATOM
      1 C13         29.5400    39.8860    33.0000 c3         1 X54       0.148800
      2 C01         18.7520    40.4460    34.9060 c3         1 X54      -0.151100
      3 C02         20.0270    39.9690    34.2090 c3         1 X54       0.638200
      4 C06         22.5300    40.0590    34.3460 c3         1 X54       0.179800
      5 C07         23.6290    40.3920    35.3740 c3         1 X54      -0.083400
      6 C08         25.0570    40.2090    34.8110 c3         1 X54      -0.078400
      7 C09         26.1560    40.5440    35.8450 c3         1 X54       0.164800
      8 C11         28.0050    39.1150    34.9280 c3         1 X54       0.155800
      9 C12         29.4410    39.1730    34.3660 c3         1 X54      -0.078400
     10 N05         21.1910    40.2560    34.9650 n7         1 X54      -0.959400
     11 N10         27.5090    40.4690    35.2560 n7         1 X54      -0.867400
     12 N14         30.9200    39.8630    32.4730 n8         1 X54      -0.998200
     13 O03         20.0850    38.6190    34.1350 oh         1 X54      -0.646500
     14 O04         20.1580    40.4980    32.9380 oh         1 X54      -0.646500
     15 H1          29.2180    40.9330    33.0990 h1         1 X54       0.036700
     16 H2          28.8780    39.3880    32.2770 h1         1 X54       0.036700
     17 H3          18.6820    40.0270    35.9170 hc         1 X54       0.052033
     18 H4          18.7400    41.5390    34.9870 hc         1 X54       0.052033
     19 H5          17.8620    40.1330    34.3470 hc         1 X54       0.052033
     20 H6          22.6680    39.0210    34.0110 h1         1 X54       0.042700
     21 H7          22.6610    40.7110    33.4710 h1         1 X54       0.042700
     22 H8          23.5060    41.4290    35.7110 hc         1 X54       0.041200
     23 H9          23.5060    39.7500    36.2550 hc         1 X54       0.041200
     24 H10         25.1710    39.1730    34.4720 hc         1 X54       0.048200
     25 H11         25.1820    40.8530    33.9320 hc         1 X54       0.048200
     26 H12         25.9790    41.5630    36.2140 h1         1 X54       0.026700
     27 H13         26.0710    39.8660    36.7060 h1         1 X54       0.026700
     28 H14         27.3580    38.6260    34.1870 h1         1 X54       0.031700
     29 H15         28.0080    38.4870    35.8300 h1         1 X54       0.031700
     30 H16         29.8070    38.1450    34.2570 hc         1 X54       0.044700
     31 H17         30.0970    39.6680    35.0920 hc         1 X54       0.044700
     32 H18         21.1120    41.2530    35.1820 hn         1 X54       0.425000
     33 H20         28.1640    40.8770    35.9350 hn         1 X54       0.407000
     34 H22         30.9520    40.3980    31.5960 hn         1 X54       0.388500
     35 H23         31.5260    40.4000    33.1040 hn         1 X54       0.388500
     36 H25         20.9480    38.5390    34.5830 ho         1 X54       0.457500
     37 H26         19.2780    40.3670    32.5360 ho         1 X54       0.457500
@<TRIPOS>BOND
     1     1     9 1   
     2     1    12 1   
     3     1    15 1   
     4     1    16 1   
     5     2     3 1   
     6     2    17 1   
     7     2    18 1   
     8     2    19 1   
     9     3    10 1   
    10     3    13 1   
    11     3    14 1   
    12     4     5 1   
    13     4    10 1   
    14     4    20 1   
    15     4    21 1   
    16     5     6 1   
    17     5    22 1   
    18     5    23 1   
    19     6     7 1   
    20     6    24 1   
    21     6    25 1   
    22     7    11 1   
    23     7    26 1   
    24     7    27 1   
    25     8     9 1   
    26     8    11 1   
    27     8    28 1   
    28     8    29 1   
    29     9    30 1   
    30     9    31 1   
    31    10    32 1   
    32    11    33 1   
    33    12    34 1   
    34    12    35 1   
    35    13    36 1   
    36    14    37 1   
@<TRIPOS>SUBSTRUCTURE
     1 X54         1 TEMP              0 ****  ****    0 ROOT
