@<TRIPOS>MOLECULE
X54
   37    36     1     0     0
SMALL
abcg2


@<TRIPOS>ATOM
      1 C13         29.5910    39.9090    33.0450 c3         1 X54       0.148800
      2 C01         18.8200    40.2980    34.9450 c3         1 X54      -0.151100
      3 C02         20.0820    39.8060    34.2370 c3         1 X54       0.638200
      4 C06         22.5320    40.1220    34.3380 c3         1 X54       0.179800
      5 C07         23.6450    40.4330    35.3270 c3         1 X54      -0.083400
      6 C08         25.0280    40.3060    34.6990 c3         1 X54      -0.078400
      7 C09         26.1400    40.6060    35.6960 c3         1 X54       0.164800
      8 C11         27.9430    39.2010    34.8590 c3         1 X54       0.155800
      9 C12         29.3830    39.1870    34.3690 c3         1 X54      -0.078400
     10 N05         21.2310    40.2660    34.9710 n7         1 X54      -0.959400
     11 N10         27.4640    40.5500    35.1020 n7         1 X54      -0.867400
     12 N14         30.9730    39.7790    32.5990 n8         1 X54      -0.998200
     13 O03         20.1060    38.4110    34.1460 oh         1 X54      -0.646500
     14 O04         20.0690    40.1760    32.8810 oh         1 X54      -0.646500
     15 H1          29.2580    40.9500    33.1450 h1         1 X54       0.036700
     16 H2          28.9440    39.4530    32.2900 h1         1 X54       0.036700
     17 H3          18.7940    39.9610    35.9810 hc         1 X54       0.052033
     18 H4          18.7670    41.3890    34.9510 hc         1 X54       0.052033
     19 H5          17.9320    39.9210    34.4370 hc         1 X54       0.052033
     20 H6          22.6420    39.0920    33.9920 h1         1 X54       0.042700
     21 H7          22.6490    40.7630    33.4540 h1         1 X54       0.042700
     22 H8          23.5140    41.4500    35.7160 hc         1 X54       0.041200
     23 H9          23.5640    39.7610    36.1850 hc         1 X54       0.041200
     24 H10         25.1430    39.2960    34.2950 hc         1 X54       0.048200
     25 H11         25.1170    40.9920    33.8510 hc         1 X54       0.048200
     26 H12         25.9930    41.6150    36.0890 h1         1 X54       0.026700
     27 H13         26.0420    39.9200    36.5540 h1         1 X54       0.026700
     28 H14         27.3080    38.7300    34.1040 h1         1 X54       0.031700
     29 H15         27.8650    38.5680    35.7590 h1         1 X54       0.031700
     30 H16         29.7060    38.1480    34.2620 hc         1 X54       0.044700
     31 H17         30.0310    39.6320    35.1340 hc         1 X54       0.044700
     32 H18         21.0970    41.2190    35.2850 hn         1 X54       0.425000
     33 H20         28.1160    41.0080    35.7280 hn         1 X54       0.407000
     34 H22         31.0850    40.2570    31.7140 hn         1 X54       0.388500
     35 H23         31.5760    40.2710    33.2470 hn         1 X54       0.388500
     36 H25         20.1950    38.0640    35.0400 ho         1 X54       0.457500
     37 H26         20.0300    41.1360    32.8270 ho         1 X54       0.457500
@<TRIPOS>BOND
     1     1     9 1   
     2     1    12 1   
     3     1    15 1   
     4     1    16 1   
     5     2     3 1   
     6     2    17 1   
     7     2    18 1   
     8     2    19 1   
     9     3    10 1   
    10     3    13 1   
    11     3    14 1   
    12     4     5 1   
    13     4    10 1   
    14     4    20 1   
    15     4    21 1   
    16     5     6 1   
    17     5    22 1   
    18     5    23 1   
    19     6     7 1   
    20     6    24 1   
    21     6    25 1   
    22     7    11 1   
    23     7    26 1   
    24     7    27 1   
    25     8     9 1   
    26     8    11 1   
    27     8    28 1   
    28     8    29 1   
    29     9    30 1   
    30     9    31 1   
    31    10    32 1   
    32    11    33 1   
    33    12    34 1   
    34    12    35 1   
    35    13    36 1   
    36    14    37 1   
@<TRIPOS>SUBSTRUCTURE
     1 X54         1 TEMP              0 ****  ****    0 ROOT
