@<TRIPOS>MOLECULE
X55
   39    41     1     0     0
SMALL
bcc


@<TRIPOS>ATOM
      1 CAA          2.4160     2.2110    -2.2690 c3         1 X55       0.128700
      2 OAC         -0.7230     4.0600    -0.4210 oh         1 X55      -0.488100
      3 BRAD        -3.1820    -0.2620     0.8880 br         1 X55      -0.095100
      4 CAE          2.8230     2.2330     1.6820 ca         1 X55      -0.122000
      5 CAF          3.4810     1.1460     1.1190 ca         1 X55      -0.135000
      6 CAG          1.5530     2.0650     2.2150 ca         1 X55      -0.135000
      7 CAH          2.8620    -0.0940     1.0660 ca         1 X55      -0.112000
      8 CAI          0.9400     0.8200     2.1700 ca         1 X55      -0.112000
      9 CAJ         -1.7400     2.0060     0.0790 ca         1 X55      -0.135000
     10 CAK          0.3370     0.6570    -1.1450 ca         1 X55      -0.134000
     11 CAL          0.8570    -3.3970    -1.8260 c5         1 X55      -0.090300
     12 CAM          0.8850    -1.5990     1.4790 c3         1 X55       0.152300
     13 OAN          1.3100     2.8220    -1.6340 os         1 X55      -0.338900
     14 SAO         -0.4480    -2.2290    -2.2620 ss         1 X55      -0.301200
     15 CAP          1.4050    -2.9740    -0.4810 c          1 X55       0.710500
     16 CAQ          1.5790    -0.2640     1.5810 ca         1 X55      -0.105300
     17 CAR         -0.7010     2.7200    -0.4820 ca         1 X55       0.139100
     18 CAS         -1.7270     0.6130     0.0440 ca         1 X55       0.007100
     19 CAT          0.3540     2.0320    -1.1110 ca         1 X55       0.063100
     20 CAU         -0.6930    -0.0850    -0.5550 ca         1 X55      -0.080300
     21 CAV         -0.5640    -1.5840    -0.5500 c5         1 X55       0.264100
     22 NAW          0.6480    -2.0270     0.1080 n          1 X55      -0.478800
     23 HAA          2.1100     1.6350    -3.1460 h1         1 X55       0.047033
     24 HAAA         3.0720     3.0170    -2.5890 h1         1 X55       0.047033
     25 HAAB         2.9600     1.5580    -1.5830 h1         1 X55       0.047033
     26 HOAC         0.0730     4.4270    -0.8250 ho         1 X55       0.447000
     27 HAF          4.4780     1.2690     0.7140 ha         1 X55       0.132000
     28 HAG          1.0330     2.9040     2.6590 ha         1 X55       0.132000
     29 HAH          3.3780    -0.9320     0.6140 ha         1 X55       0.138000
     30 HAI         -0.0570     0.6970     2.5770 ha         1 X55       0.138000
     31 HAJ         -2.5480     2.5460     0.5550 ha         1 X55       0.166000
     32 HAK          1.1450     0.1100    -1.6130 ha         1 X55       0.152000
     33 HAL          0.4820    -4.4190    -1.7470 h1         1 X55       0.102200
     34 HALA         1.6480    -3.3800    -2.5750 h1         1 X55       0.102200
     35 HAM          1.4760    -2.3730     1.9690 h1         1 X55       0.068200
     36 HAMA        -0.0750    -1.5620     1.9980 h1         1 X55       0.068200
     37 HAV         -1.4210    -2.0460    -0.0590 h2         1 X55       0.092700
     38 OAB          2.4040    -3.4710     0.0070 o          1 X55      -0.611500
     39 HAE          3.3010     3.2040     1.7090 ha         1 X55       0.130000
@<TRIPOS>BOND
     1     1    13 1   
     2     1    23 1   
     3     1    24 1   
     4     1    25 1   
     5     2    17 1   
     6     2    26 1   
     7     3    18 1   
     8     4     5 ar  
     9     4     6 ar  
    10     4    39 1   
    11     5     7 ar  
    12     5    27 1   
    13     6     8 ar  
    14     6    28 1   
    15     7    16 ar  
    16     7    29 1   
    17     8    16 ar  
    18     8    30 1   
    19     9    17 ar  
    20     9    18 ar  
    21     9    31 1   
    22    10    19 ar  
    23    10    20 ar  
    24    10    32 1   
    25    11    14 1   
    26    11    15 1   
    27    11    33 1   
    28    11    34 1   
    29    12    16 1   
    30    12    22 1   
    31    12    35 1   
    32    12    36 1   
    33    13    19 1   
    34    14    21 1   
    35    15    22 1   
    36    15    38 2   
    37    17    19 ar  
    38    18    20 ar  
    39    20    21 1   
    40    21    22 1   
    41    21    37 1   
@<TRIPOS>SUBSTRUCTURE
     1 X55         1 TEMP              0 ****  ****    0 ROOT
