@<TRIPOS>MOLECULE
X55
   39    41     1     0     0
SMALL
No Charge or Current Charge


@<TRIPOS>ATOM
      1 CAA          2.3740     2.5780    -2.2220 c3         1 X55       0.151900
      2 OAC         -1.0210     4.0800    -0.3100 oh         1 X55      -0.527100
      3 BrAD        -3.1500    -0.5880     0.7810 br         1 X55      -0.095100
      4 CAE          3.1240     2.1220     1.6240 ca         1 X55      -0.104000
      5 CAF          3.6710     0.9480     1.0790 ca         1 X55      -0.117000
      6 CAG          1.8180     2.1120     2.1380 ca         1 X55      -0.117000
      7 CAH          2.9100    -0.2330     1.0420 ca         1 X55      -0.094000
      8 CAI          1.0570     0.9300     2.1050 ca         1 X55      -0.094000
      9 CAJ         -1.8900     1.8880     0.1070 ca         1 X55      -0.117000
     10 CAK          0.3250     0.7720    -1.2080 ca         1 X55      -0.116000
     11 CAL          0.8730    -3.6200    -1.6840 c5         1 X55      -0.042400
     12 CAM          0.7550    -1.5220     1.4930 c3         1 X55       0.152300
     13 OAN          1.1670     3.0450    -1.5910 os         1 X55      -0.362100
     14 SAO          0.0510    -2.1610    -2.4720 ss         1 X55      -0.397000
     15 CAP          1.3420    -3.1660    -0.2930 c          1 X55       0.568000
     16 CAQ          1.5960    -0.2490     1.5510 ca         1 X55      -0.105300
     17 CAR         -0.9040     2.7250    -0.4300 ca         1 X55       0.139100
     18 CAS         -1.7740     0.4920    -0.0070 ca         1 X55       0.007100
     19 CAT          0.2120     2.1750    -1.0890 ca         1 X55       0.063100
     20 CAU         -0.6630    -0.0850    -0.6700 ca         1 X55      -0.080300
     21 CAV         -0.5040    -1.6060    -0.7940 c5         1 X55       0.312000
     22 NAW          0.5680    -2.0660     0.1240 n          1 X55      -0.411800
     23 HAA          2.1430     1.9850    -3.1170 h1         1 X55       0.047033
     24 HAAA         2.9960     3.4280    -2.5290 h1         1 X55       0.047033
     25 HAAB         2.9610     1.9600    -1.5320 h1         1 X55       0.047033
     26 HOAC        -0.2270     4.4660    -0.7440 ho         1 X55       0.486000
     27 HAF          4.6840     0.9540     0.6810 ha         1 X55       0.114000
     28 HAG          1.3920     3.0200     2.5590 ha         1 X55       0.114000
     29 HAH          3.3420    -1.1340     0.6130 ha         1 X55       0.120000
     30 HAI          0.0430     0.9370     2.5000 ha         1 X55       0.120000
     31 HAJ         -2.7440     2.3220     0.6200 ha         1 X55       0.148000
     32 HAK          1.1860     0.3300    -1.6990 ha         1 X55       0.134000
     33 HAL          0.1600    -4.4430    -1.5570 h1         1 X55       0.102200
     34 HALA         1.7340    -3.9600    -2.2710 h1         1 X55       0.102200
     35 HAM          1.2170    -2.2790     2.1390 h1         1 X55       0.068200
     36 HAMA        -0.2360    -1.3200     1.9190 h1         1 X55       0.068200
     37 HAV         -1.4130    -2.1510    -0.5140 h2         1 X55       0.092700
     38 OAB          2.2440    -3.6660     0.3670 o          1 X55      -0.536000
     39 HAE          3.7120     3.0360     1.6480 ha         1 X55       0.112000
@<TRIPOS>BOND
     1     1    13 1   
     2     1    23 1   
     3     1    24 1   
     4     1    25 1   
     5     2    17 1   
     6     2    26 1   
     7     3    18 1   
     8     4     5 ar  
     9     4     6 ar  
    10     4    39 1   
    11     5     7 ar  
    12     5    27 1   
    13     6     8 ar  
    14     6    28 1   
    15     7    16 ar  
    16     7    29 1   
    17     8    16 ar  
    18     8    30 1   
    19     9    17 ar  
    20     9    18 ar  
    21     9    31 1   
    22    10    19 ar  
    23    10    20 ar  
    24    10    32 1   
    25    11    14 1   
    26    11    15 1   
    27    11    33 1   
    28    11    34 1   
    29    12    16 1   
    30    12    22 1   
    31    12    35 1   
    32    12    36 1   
    33    13    19 1   
    34    14    21 1   
    35    15    22 1   
    36    15    38 2   
    37    17    19 ar  
    38    18    20 ar  
    39    20    21 1   
    40    21    22 1   
    41    21    37 1   
@<TRIPOS>SUBSTRUCTURE
     1 X55         1 TEMP              0 ****  ****    0 ROOT
