@<TRIPOS>MOLECULE
X57
   32    32     1     0     0
SMALL
No Charge or Current Charge


@<TRIPOS>ATOM
      1 O5           7.8240     0.3380   -13.8650 o          1 X57      -0.603100
      2 C9           7.2490     0.0630   -12.8210 c          1 X57       0.598100
      3 N2           7.7860     0.4510   -11.6390 nt         1 X57      -0.612000
      4 C1           5.9260    -0.7660   -12.7490 c6         1 X57       0.066900
      5 C2           6.1590    -2.1490   -12.1170 c2         1 X57      -0.264200
      6 C3           5.6980    -3.3070   -12.6270 c2         1 X57      -0.093400
      7 C8           6.0350    -4.6640   -12.0320 c3         1 X57      -0.053900
      8 C4           4.8570    -3.3190   -13.9020 c6         1 X57       0.155700
      9 C5           5.2860    -2.1280   -14.7930 c6         1 X57       0.110000
     10 N            5.1960    -0.8400   -14.0570 n          1 X57      -0.395800
     11 C            4.5390     0.2730   -14.6080 c          1 X57       0.616900
     12 O            4.4730     1.3540   -14.0310 o          1 X57      -0.626100
     13 N1           3.4140    -3.2140   -13.5750 n7         1 X57      -0.572900
     14 O2           2.9400    -4.4190   -12.8980 os         1 X57      -0.292300
     15 C6           1.5000    -4.4960   -12.6740 c3         1 X57       0.249300
     16 F            0.8350    -4.4580   -13.8670 f          1 X57      -0.305000
     17 C7           0.9620    -3.3940   -11.6650 c          1 X57       0.712000
     18 O4           1.7140    -2.5120   -11.2550 o          1 X57      -0.706000
     19 O3          -0.2050    -3.4770   -11.2910 o          1 X57      -0.706000
     20 H1           8.6470     0.9770   -11.6380 hn         1 X57       0.307500
     21 H2           7.3230     0.2210   -10.7720 hn         1 X57       0.307500
     22 H3           5.2880    -0.2020   -12.0530 h1         1 X57       0.084700
     23 H4           6.7740    -2.1600   -11.2160 ha         1 X57       0.166000
     24 H5           6.7030    -4.5710   -11.1680 hc         1 X57       0.044700
     25 H6           5.1360    -5.1900   -11.6920 hc         1 X57       0.044700
     26 H7           6.5390    -5.3020   -12.7680 hc         1 X57       0.044700
     27 H8           5.0330    -4.2490   -14.4650 h1         1 X57       0.090700
     28 H9           4.6590    -2.1000   -15.6950 h1         1 X57       0.067200
     29 H10          6.3250    -2.2780   -15.1200 h1         1 X57       0.067200
     30 H11          4.0900     0.0710   -15.5990 h5         1 X57       0.030200
     31 H12          3.3210    -2.4740   -12.8640 hn         1 X57       0.420000
     32 H13          1.2730    -5.4640   -12.2160 h2         1 X57       0.045700
@<TRIPOS>BOND
     1     1     2 2   
     2     2     3 1   
     3     2     4 1   
     4     3    20 1   
     5     3    21 1   
     6     4     5 1   
     7     4    10 1   
     8     4    22 1   
     9     5     6 2   
    10     5    23 1   
    11     6     7 1   
    12     6     8 1   
    13     7    24 1   
    14     7    25 1   
    15     7    26 1   
    16     8     9 1   
    17     8    13 1   
    18     8    27 1   
    19     9    10 1   
    20     9    28 1   
    21     9    29 1   
    22    10    11 1   
    23    11    12 2   
    24    11    30 1   
    25    13    14 1   
    26    13    31 1   
    27    14    15 1   
    28    15    16 1   
    29    15    17 1   
    30    15    32 1   
    31    17    18 1   
    32    17    19 1   
@<TRIPOS>SUBSTRUCTURE
     1 X57         1 TEMP              0 ****  ****    0 ROOT
