@<TRIPOS>MOLECULE
X59
   48    50     1     0     0
SMALL
No Charge or Current Charge


@<TRIPOS>ATOM
      1 O1          45.9460     0.4050    37.5730 o          1 X59      -0.714500
      2 C2          45.8560    -0.6030    38.2610 c          1 X59       0.711600
      3 C3          45.2850    -1.8670    37.6340 ca         1 X59      -0.106600
      4 C4          45.1500    -3.0550    38.3880 ca         1 X59      -0.102500
      5 C5          44.6240    -4.2230    37.8090 ca         1 X59      -0.105500
      6 C6          44.8740    -1.8860    36.2820 ca         1 X59      -0.102500
      7 C7          44.3470    -3.0540    35.7060 ca         1 X59      -0.105500
      8 C8          44.2100    -4.2540    36.4520 cp         1 X59      -0.203500
      9 C9          43.6510    -5.5110    35.8320 cp         1 X59       0.451500
     10 C10         43.0250    -6.5470    36.6090 ca         1 X59       0.220900
     11 N11         42.5160    -7.6880    36.0630 nb         1 X59      -0.613000
     12 C12         42.6550    -7.7760    34.7100 ca         1 X59       0.201900
     13 C13         43.2870    -6.7560    33.9280 ca         1 X59       0.578900
     14 N14         43.4060    -6.8360    32.5440 nu         1 X59      -0.933900
     15 C15         44.1380    -6.1550    31.5600 ca         1 X59       0.335000
     16 C16         43.6720    -6.1960    30.2200 ca         1 X59       0.024100
     17 C17         44.4060    -5.5430    29.2040 ca         1 X59      -0.131000
     18 C18         45.5950    -4.8670    29.5240 ca         1 X59      -0.162000
     19 C19         46.0670    -4.8350    30.8440 ca         1 X59       0.160100
     20 O20         47.2580    -4.1720    31.0790 os         1 X59      -0.365100
     21 C21         47.7470    -3.8530    32.3970 c3         1 X59       0.176300
     22 C22         49.2200    -3.4340    32.2330 c3         1 X59      -0.108600
     23 C23         46.8810    -2.7150    32.9810 c3         1 X59      -0.108600
     24 C24         45.3420    -5.4920    31.8580 ca         1 X59      -0.200000
     25 O25         42.5000    -6.8900    29.9410 os         1 X59      -0.368100
     26 C26         41.9530    -6.9810    28.6120 c3         1 X59       0.159900
     27 N27         43.7640    -5.6260    34.4800 nb         1 X59      -0.727000
     28 O28         46.2050    -0.6350    39.4340 o          1 X59      -0.714500
     29 H1          45.4590    -3.0790    39.4310 ha         1 X59       0.129000
     30 H2          44.5540    -5.1160    38.4250 ha         1 X59       0.095500
     31 H3          44.9590    -0.9910    35.6710 ha         1 X59       0.129000
     32 H4          44.0320    -3.0210    34.6660 ha         1 X59       0.095500
     33 H5          42.9180    -6.4490    37.6870 h4         1 X59       0.034100
     34 H6          42.2590    -8.6750    34.2410 h4         1 X59       0.014100
     35 H7          42.7240    -7.4680    32.1290 hn         1 X59       0.509000
     36 H8          44.0760    -5.5510    28.1690 ha         1 X59       0.108000
     37 H9          46.1600    -4.3670    28.7410 ha         1 X59       0.121000
     38 H10         47.7160    -4.7290    33.0580 h1         1 X59       0.061700
     39 H11         49.6540    -3.1700    33.2040 hc         1 X59       0.047200
     40 H12         49.8080    -4.2570    31.8100 hc         1 X59       0.047200
     41 H13         49.3090    -2.5660    31.5680 hc         1 X59       0.047200
     42 H14         47.2380    -2.4370    33.9790 hc         1 X59       0.047200
     43 H15         46.9230    -1.8260    32.3410 hc         1 X59       0.047200
     44 H16         45.8340    -3.0230    33.0720 hc         1 X59       0.047200
     45 H17         45.7130    -5.5100    32.8730 ha         1 X59       0.170000
     46 H18         41.0280    -7.5700    28.6210 h1         1 X59       0.033700
     47 H19         41.7160    -5.9840    28.2190 h1         1 X59       0.033700
     48 H20         42.6610    -7.4700    27.9310 h1         1 X59       0.033700
@<TRIPOS>BOND
     1     1     2 1   
     2     2     3 1   
     3     2    28 1   
     4     3     4 ar  
     5     3     6 ar  
     6     4     5 ar  
     7     4    29 1   
     8     5     8 ar  
     9     5    30 1   
    10     6     7 ar  
    11     6    31 1   
    12     7     8 ar  
    13     7    32 1   
    14     8     9 1   
    15     9    10 ar  
    16     9    27 ar  
    17    10    11 ar  
    18    10    33 1   
    19    11    12 ar  
    20    12    13 ar  
    21    12    34 1   
    22    13    14 1   
    23    13    27 ar  
    24    14    15 1   
    25    14    35 1   
    26    15    16 ar  
    27    15    24 ar  
    28    16    17 ar  
    29    16    25 1   
    30    17    18 ar  
    31    17    36 1   
    32    18    19 ar  
    33    18    37 1   
    34    19    20 1   
    35    19    24 ar  
    36    20    21 1   
    37    21    22 1   
    38    21    23 1   
    39    21    38 1   
    40    22    39 1   
    41    22    40 1   
    42    22    41 1   
    43    23    42 1   
    44    23    43 1   
    45    23    44 1   
    46    24    45 1   
    47    25    26 1   
    48    26    46 1   
    49    26    47 1   
    50    26    48 1   
@<TRIPOS>SUBSTRUCTURE
     1 X59         1 TEMP              0 ****  ****    0 ROOT
