@<TRIPOS>MOLECULE
X5A
   23    22     1     0     0
SMALL
No Charge or Current Charge


@<TRIPOS>ATOM
      1 C01         18.8010    41.7400    34.9820 c3         1 X5A      -0.179100
      2 C02         19.9400    41.0860    34.2100 c          1 X5A       0.599100
      3 C05         22.3930    40.5610    34.2860 c3         1 X5A       0.105000
      4 C06         23.5860    40.7580    35.2400 c3         1 X5A      -0.095400
      5 C07         24.9040    40.1730    34.6850 c3         1 X5A      -0.076400
      6 C08         26.0980    40.3730    35.6410 c3         1 X5A       0.149800
      7 N04         21.1620    41.1250    34.8390 ns         1 X5A      -0.511900
      8 N09         27.3390    39.8090    35.0820 n8         1 X5A      -0.994200
      9 O03         19.7820    40.5670    33.1150 o          1 X5A      -0.608100
     10 H1          19.0780    42.7740    35.2190 hc         1 X5A       0.058367
     11 H2          17.8450    41.6890    34.4490 hc         1 X5A       0.058367
     12 H3          18.7350    41.2830    35.9760 hc         1 X5A       0.058367
     13 H4          22.2400    39.4880    34.1030 h1         1 X5A       0.052700
     14 H5          22.6050    41.0480    33.3250 h1         1 X5A       0.052700
     15 H6          23.7190    41.8310    35.4310 hc         1 X5A       0.040700
     16 H7          23.3580    40.2840    36.2030 hc         1 X5A       0.040700
     17 H8          24.7680    39.1020    34.4930 hc         1 X5A       0.051200
     18 H9          25.1290    40.6480    33.7220 hc         1 X5A       0.051200
     19 H10         26.2510    41.4460    35.8220 h1         1 X5A       0.025700
     20 H11         25.8890    39.8840    36.6020 h1         1 X5A       0.025700
     21 H12         21.1960    41.5770    35.7450 hn         1 X5A       0.310500
     22 H13         28.0930    39.9100    35.7730 hn         1 X5A       0.392500
     23 H14         27.2320    38.7910    34.9930 hn         1 X5A       0.392500
@<TRIPOS>BOND
     1     1     2 1   
     2     1    10 1   
     3     1    11 1   
     4     1    12 1   
     5     2     7 1   
     6     2     9 2   
     7     3     4 1   
     8     3     7 1   
     9     3    13 1   
    10     3    14 1   
    11     4     5 1   
    12     4    15 1   
    13     4    16 1   
    14     5     6 1   
    15     5    17 1   
    16     5    18 1   
    17     6     8 1   
    18     6    19 1   
    19     6    20 1   
    20     7    21 1   
    21     8    22 1   
    22     8    23 1   
@<TRIPOS>SUBSTRUCTURE
     1 X5A         1 TEMP              0 ****  ****    0 ROOT
