@<TRIPOS>MOLECULE
X5A
   23    22     1     0     0
SMALL
abcg2


@<TRIPOS>ATOM
      1 C01         18.8670    41.7340    34.9910 c3         1 X5A      -0.179100
      2 C02         20.0420    41.1960    34.2100 c          1 X5A       0.599100
      3 C05         22.4240    40.6180    34.2920 c3         1 X5A       0.105000
      4 C06         23.5800    40.7320    35.2730 c3         1 X5A      -0.095400
      5 C07         24.8770    40.1900    34.6900 c3         1 X5A      -0.076400
      6 C08         26.0440    40.3030    35.6580 c3         1 X5A       0.149800
      7 N04         21.2010    41.1220    34.8820 ns         1 X5A      -0.511900
      8 N09         27.2630    39.7690    35.0670 n8         1 X5A      -0.994200
      9 O03         19.9380    40.8540    33.0390 o          1 X5A      -0.608100
     10 H1          18.4780    42.6240    34.4960 hc         1 X5A       0.058367
     11 H2          18.0680    40.9930    34.9980 hc         1 X5A       0.058367
     12 H3          19.1050    41.9910    36.0220 hc         1 X5A       0.058367
     13 H4          22.2950    39.5720    33.9950 h1         1 X5A       0.052700
     14 H5          22.6550    41.1780    33.3830 h1         1 X5A       0.052700
     15 H6          23.7130    41.7810    35.5570 hc         1 X5A       0.040700
     16 H7          23.3330    40.1880    36.1910 hc         1 X5A       0.040700
     17 H8          24.7380    39.1390    34.4120 hc         1 X5A       0.051200
     18 H9          25.1250    40.7250    33.7680 hc         1 X5A       0.051200
     19 H10         26.2110    41.3580    35.8920 h1         1 X5A       0.025700
     20 H11         25.7660    39.8190    36.6060 h1         1 X5A       0.025700
     21 H12         21.2230    41.4010    35.8490 hn         1 X5A       0.310500
     22 H13         28.0320    39.8920    35.7130 hn         1 X5A       0.392500
     23 H14         27.1640    38.7680    34.9520 hn         1 X5A       0.392500
@<TRIPOS>BOND
     1     1     2 1   
     2     1    10 1   
     3     1    11 1   
     4     1    12 1   
     5     2     7 1   
     6     2     9 2   
     7     3     4 1   
     8     3     7 1   
     9     3    13 1   
    10     3    14 1   
    11     4     5 1   
    12     4    15 1   
    13     4    16 1   
    14     5     6 1   
    15     5    17 1   
    16     5    18 1   
    17     6     8 1   
    18     6    19 1   
    19     6    20 1   
    20     7    21 1   
    21     8    22 1   
    22     8    23 1   
@<TRIPOS>SUBSTRUCTURE
     1 X5A         1 TEMP              0 ****  ****    0 ROOT
