@<TRIPOS>MOLECULE
X5B
   66    69     1     0     0
SMALL
abcg2


@<TRIPOS>ATOM
      1 N1         -36.1300   -30.7460   -68.8450 n3         1 X5B      -0.726600
      2 N3         -46.2570   -27.8170   -70.7840 nb         1 X5B      -0.310000
      3 C4         -34.7540   -28.8610   -67.9560 c3         1 X5B       0.156600
      4 C5         -37.3040   -30.2280   -68.1500 c3         1 X5B       0.180800
      5 C6         -37.4750   -30.6690   -66.6800 c3         1 X5B      -0.074100
      6 C7         -38.6760   -30.0170   -66.0530 ca         1 X5B      -0.074300
      7 C8         -38.6130   -28.6980   -65.6000 ca         1 X5B      -0.106000
      8 C10        -40.9420   -28.7530   -64.9300 ca         1 X5B      -0.086300
      9 C13        -45.2280   -26.2930   -65.5630 ca         1 X5B       0.326000
     10 C15        -46.4500   -25.9840   -67.6430 cp         1 X5B      -0.098500
     11 C17        -47.1700   -25.3560   -69.9770 ca         1 X5B      -0.107000
     12 C20        -47.3580   -25.1350   -67.0070 ca         1 X5B      -0.145000
     13 C21        -47.1750   -24.8810   -65.6540 ca         1 X5B       0.166000
     14 C22        -46.1410   -25.4310   -64.9250 ca         1 X5B      -0.175000
     15 C24        -39.8930   -30.6900   -65.9420 ca         1 X5B      -0.106000
     16 C26        -35.1680   -32.6160   -70.0940 c6         1 X5B       0.175300
     17 C1         -33.7860   -32.2120   -69.6250 c6         1 X5B       0.131300
     18 O1         -32.8500   -32.5610   -70.6440 oh         1 X5B      -0.672000
     19 C2         -33.7360   -30.7280   -69.3070 c6         1 X5B       0.139300
     20 N2         -44.2250   -26.8710   -64.8230 nu         1 X5B      -0.958200
     21 O2         -32.4250   -30.4760   -68.7900 oh         1 X5B      -0.739000
     22 C3         -34.8310   -30.3410   -68.2960 c6         1 X5B       0.171500
     23 O3         -34.9900   -28.0740   -69.1260 oh         1 X5B      -0.655000
     24 N4         -46.1650   -27.4730   -69.5050 nb         1 X5B      -0.319000
     25 O4         -35.2690   -34.0310   -70.2540 oh         1 X5B      -0.726000
     26 C9         -39.7270   -28.0760   -65.0500 ca         1 X5B      -0.101000
     27 C11        -42.1540   -28.0760   -64.3490 c3         1 X5B      -0.042100
     28 C12        -43.0850   -27.5330   -65.4330 c3         1 X5B       0.211800
     29 C14        -45.3940   -26.5530   -66.9310 ca         1 X5B      -0.146000
     30 C16        -46.6030   -26.2800   -69.0870 cp         1 X5B       0.344500
     31 C18        -47.2720   -25.7160   -71.2990 ca         1 X5B      -0.118000
     32 C19        -46.7940   -26.9750   -71.6590 ca         1 X5B       0.271900
     33 C23        -41.0070   -30.0700   -65.3870 ca         1 X5B      -0.101000
     34 C25        -36.2010   -32.1860   -69.0660 c6         1 X5B       0.169800
     35 CL1        -48.3100   -23.8210   -64.8350 cl         1 X5B      -0.217000
     36 H2         -33.7580   -28.6620   -67.5530 h1         1 X5B       0.026700
     37 H3         -35.4770   -28.6130   -67.1760 h1         1 X5B       0.026700
     38 H4         -37.2850   -29.1390   -68.1940 h1         1 X5B       0.062200
     39 H5         -38.1830   -30.5480   -68.7150 h1         1 X5B       0.062200
     40 H6         -37.5760   -31.7550   -66.6320 hc         1 X5B       0.049200
     41 H7         -36.5780   -30.4020   -66.1160 hc         1 X5B       0.049200
     42 H8         -37.6770   -28.1550   -65.6720 ha         1 X5B       0.112000
     43 H10        -48.1940   -24.7010   -67.5340 ha         1 X5B       0.129000
     44 H11        -46.0290   -25.2070   -63.8730 ha         1 X5B       0.128000
     45 H12        -39.9660   -31.7170   -66.2830 ha         1 X5B       0.112000
     46 H13        -35.3770   -32.1170   -71.0470 h1         1 X5B       0.060700
     47 H14        -33.5560   -32.7690   -68.7060 h1         1 X5B       0.051700
     48 H15        -31.9830   -32.2470   -70.3540 ho         1 X5B       0.461000
     49 H16        -33.8880   -30.1600   -70.2270 h1         1 X5B       0.075700
     50 H17        -44.0320   -26.4180   -63.9430 hn         1 X5B       0.470000
     51 H18        -32.1650   -29.5760   -69.0190 ho         1 X5B       0.511000
     52 H19        -34.6070   -30.8760   -67.3570 h1         1 X5B       0.038700
     53 H20        -34.8680   -27.1460   -68.8910 ho         1 X5B       0.439000
     54 H21        -34.5440   -34.3110   -70.8270 ho         1 X5B       0.522000
     55 H22        -39.6520   -27.0530   -64.6970 ha         1 X5B       0.113500
     56 H23        -42.7160   -28.7780   -63.7270 hc         1 X5B       0.053700
     57 H24        -41.8400   -27.2490   -63.7060 hc         1 X5B       0.053700
     58 H25        -42.5290   -26.8510   -66.0900 h1         1 X5B       0.048200
     59 H26        -43.4370   -28.3610   -66.0520 h1         1 X5B       0.048200
     60 H27        -44.7020   -27.1940   -67.4530 ha         1 X5B       0.139000
     61 H28        -47.6930   -25.0520   -72.0410 ha         1 X5B       0.132000
     62 H29        -46.8370   -27.3250   -72.6830 h4         1 X5B       0.030100
     63 H30        -41.9380   -30.6180   -65.3000 ha         1 X5B       0.113500
     64 H31        -37.1970   -32.4340   -69.4360 h1         1 X5B       0.049700
     65 H32        -36.0350   -32.7670   -68.1440 h1         1 X5B       0.049700
     66 H9         -47.4980   -24.3850   -69.6330 ha         1 X5B       0.135000
@<TRIPOS>BOND
     1     1     4 1   
     2     1    22 1   
     3     1    34 1   
     4     2    24 ar  
     5     2    32 ar  
     6     3    22 1   
     7     3    23 1   
     8     3    36 1   
     9     3    37 1   
    10     4     5 1   
    11     4    38 1   
    12     4    39 1   
    13     5     6 1   
    14     5    40 1   
    15     5    41 1   
    16     6     7 ar  
    17     6    15 ar  
    18     7    26 ar  
    19     7    42 1   
    20     8    26 ar  
    21     8    27 1   
    22     8    33 ar  
    23     9    14 ar  
    24     9    20 1   
    25     9    29 ar  
    26    10    12 ar  
    27    10    29 ar  
    28    10    30 1   
    29    11    30 ar  
    30    11    31 ar  
    31    11    66 1   
    32    12    13 ar  
    33    12    43 1   
    34    13    14 ar  
    35    13    35 1   
    36    14    44 1   
    37    15    33 ar  
    38    15    45 1   
    39    16    17 1   
    40    16    25 1   
    41    16    34 1   
    42    16    46 1   
    43    17    18 1   
    44    17    19 1   
    45    17    47 1   
    46    18    48 1   
    47    19    21 1   
    48    19    22 1   
    49    19    49 1   
    50    20    28 1   
    51    20    50 1   
    52    21    51 1   
    53    22    52 1   
    54    23    53 1   
    55    24    30 ar  
    56    25    54 1   
    57    26    55 1   
    58    27    28 1   
    59    27    56 1   
    60    27    57 1   
    61    28    58 1   
    62    28    59 1   
    63    29    60 1   
    64    31    32 ar  
    65    31    61 1   
    66    32    62 1   
    67    33    63 1   
    68    34    64 1   
    69    34    65 1   
@<TRIPOS>SUBSTRUCTURE
     1 X5B         1 TEMP              0 ****  ****    0 ROOT
