@<TRIPOS>MOLECULE
X5B
   66    69     1     0     0
SMALL
No Charge or Current Charge


@<TRIPOS>ATOM
      1 N1         -36.1170   -30.9800   -68.8830 n3         1 X5B      -0.726600
      2 N3         -45.7870   -26.7210   -71.1730 nb         1 X5B      -0.310000
      3 C4         -34.8210   -28.7360   -68.6860 c3         1 X5B       0.156600
      4 C5         -37.3140   -30.4110   -68.1940 c3         1 X5B       0.180800
      5 C6         -37.3060   -30.4940   -66.6480 c3         1 X5B      -0.074100
      6 C7         -38.5600   -29.8770   -66.0460 ca         1 X5B      -0.074300
      7 C8         -38.6040   -28.5000   -65.7560 ca         1 X5B      -0.106000
      8 C10        -40.8930   -28.7250   -64.9410 ca         1 X5B      -0.086300
      9 C13        -45.4320   -26.4840   -65.5370 ca         1 X5B       0.326000
     10 C15        -46.5990   -25.8870   -67.6360 cp         1 X5B      -0.098500
     11 C17        -47.4970   -24.9690   -69.8710 ca         1 X5B      -0.107000
     12 C20        -47.6660   -25.3860   -66.8420 ca         1 X5B      -0.145000
     13 C21        -47.6130   -25.4310   -65.4410 ca         1 X5B       0.166000
     14 C22        -46.5000   -25.9760   -64.7900 ca         1 X5B      -0.175000
     15 C24        -39.6900   -30.6730   -65.7850 ca         1 X5B      -0.106000
     16 C26        -34.9260   -33.0850   -69.6510 c6         1 X5B       0.175300
     17 C1         -33.5670   -32.4510   -69.2620 c6         1 X5B       0.131300
     18 O1         -32.4990   -33.0010   -70.0570 oh         1 X5B      -0.672000
     19 C2         -33.6310   -30.9080   -69.4380 c6         1 X5B       0.139300
     20 N2         -44.3350   -27.0220   -64.8600 nu         1 X5B      -0.958200
     21 O2         -32.3380   -30.3430   -69.1120 oh         1 X5B      -0.739000
     22 C3         -34.7950   -30.3090   -68.5610 c6         1 X5B       0.171500
     23 O3         -35.0450   -28.2650   -70.0280 oh         1 X5B      -0.655000
     24 N4         -45.8200   -26.6850   -69.8230 nb         1 X5B      -0.319000
     25 O4         -34.8500   -34.5160   -69.5060 oh         1 X5B      -0.726000
     26 C9         -39.7640   -27.9270   -65.2060 ca         1 X5B      -0.101000
     27 C11        -42.1540   -28.1030   -64.3530 c3         1 X5B      -0.042100
     28 C12        -43.1230   -27.6210   -65.4490 c3         1 X5B       0.211800
     29 C14        -45.4850   -26.4400   -66.9430 ca         1 X5B      -0.146000
     30 C16        -46.6460   -25.8450   -69.1440 cp         1 X5B       0.344500
     31 C18        -47.4670   -25.0020   -71.2790 ca         1 X5B      -0.118000
     32 C19        -46.5880   -25.9060   -71.9000 ca         1 X5B       0.271900
     33 C23        -40.8510   -30.1010   -65.2350 ca         1 X5B      -0.101000
     34 C25        -36.0470   -32.4720   -68.7660 c6         1 X5B       0.169800
     35 Cl1        -48.9570   -24.8040   -64.4960 cl         1 X5B      -0.217000
     36 H2         -33.8660   -28.3440   -68.3120 h1         1 X5B       0.026700
     37 H3         -35.5900   -28.3380   -68.0130 h1         1 X5B       0.026700
     38 H4         -37.4500   -29.3610   -68.4830 h1         1 X5B       0.062200
     39 H5         -38.2140   -30.9300   -68.5510 h1         1 X5B       0.062200
     40 H6         -37.2210   -31.5410   -66.3350 hc         1 X5B       0.049200
     41 H7         -36.4200   -29.9830   -66.2540 hc         1 X5B       0.049200
     42 H8         -37.7390   -27.8720   -65.9570 ha         1 X5B       0.112000
     43 H10        -48.5550   -24.9710   -67.3070 ha         1 X5B       0.129000
     44 H11        -46.4730   -26.0040   -63.7050 ha         1 X5B       0.128000
     45 H12        -39.6720   -31.7380   -66.0090 ha         1 X5B       0.112000
     46 H13        -35.1430   -32.8270   -70.6990 h1         1 X5B       0.060700
     47 H14        -33.3810   -32.6610   -68.1970 h1         1 X5B       0.051700
     48 H15        -31.7730   -32.3390   -69.9770 ho         1 X5B       0.461000
     49 H16        -33.8730   -30.7040   -70.4930 h1         1 X5B       0.075700
     50 H17        -44.3930   -27.0060   -63.8400 hn         1 X5B       0.470000
     51 H18        -32.3160   -29.4380   -69.5020 ho         1 X5B       0.511000
     52 H19        -34.5450   -30.5250   -67.5120 h1         1 X5B       0.038700
     53 H20        -35.1760   -27.2930   -69.9740 ho         1 X5B       0.439000
     54 H21        -33.9330   -34.7370   -69.7990 ho         1 X5B       0.522000
     55 H22        -39.7850   -26.8620   -64.9890 ha         1 X5B       0.113500
     56 H23        -42.6670   -28.8310   -63.7120 hc         1 X5B       0.053700
     57 H24        -41.8890   -27.2560   -63.7080 hc         1 X5B       0.053700
     58 H25        -42.6090   -26.8830   -66.0810 h1         1 X5B       0.048200
     59 H26        -43.3970   -28.4760   -66.0840 h1         1 X5B       0.048200
     60 H27        -44.6460   -26.8310   -67.5100 ha         1 X5B       0.139000
     61 H28        -48.0990   -24.3480   -71.8740 ha         1 X5B       0.132000
     62 H29        -46.5180   -25.9780   -72.9850 h4         1 X5B       0.030100
     63 H30        -41.7180   -30.7290   -65.0400 ha         1 X5B       0.113500
     64 H31        -37.0070   -32.9180   -69.0660 h1         1 X5B       0.049700
     65 H32        -35.8680   -32.7670   -67.7210 h1         1 X5B       0.049700
     66 H9         -48.1520   -24.2700   -69.3610 ha         1 X5B       0.135000
@<TRIPOS>BOND
     1     1     4 1   
     2     1    22 1   
     3     1    34 1   
     4     2    24 ar  
     5     2    32 ar  
     6     3    22 1   
     7     3    23 1   
     8     3    36 1   
     9     3    37 1   
    10     4     5 1   
    11     4    38 1   
    12     4    39 1   
    13     5     6 1   
    14     5    40 1   
    15     5    41 1   
    16     6     7 ar  
    17     6    15 ar  
    18     7    26 ar  
    19     7    42 1   
    20     8    26 ar  
    21     8    27 1   
    22     8    33 ar  
    23     9    14 ar  
    24     9    20 1   
    25     9    29 ar  
    26    10    12 ar  
    27    10    29 ar  
    28    10    30 1   
    29    11    30 ar  
    30    11    31 ar  
    31    11    66 1   
    32    12    13 ar  
    33    12    43 1   
    34    13    14 ar  
    35    13    35 1   
    36    14    44 1   
    37    15    33 ar  
    38    15    45 1   
    39    16    17 1   
    40    16    25 1   
    41    16    34 1   
    42    16    46 1   
    43    17    18 1   
    44    17    19 1   
    45    17    47 1   
    46    18    48 1   
    47    19    21 1   
    48    19    22 1   
    49    19    49 1   
    50    20    28 1   
    51    20    50 1   
    52    21    51 1   
    53    22    52 1   
    54    23    53 1   
    55    24    30 ar  
    56    25    54 1   
    57    26    55 1   
    58    27    28 1   
    59    27    56 1   
    60    27    57 1   
    61    28    58 1   
    62    28    59 1   
    63    29    60 1   
    64    31    32 ar  
    65    31    61 1   
    66    32    62 1   
    67    33    63 1   
    68    34    64 1   
    69    34    65 1   
@<TRIPOS>SUBSTRUCTURE
     1 X5B         1 TEMP              0 ****  ****    0 ROOT
