@<TRIPOS>MOLECULE
X5C
  113   118     1     0     0
SMALL
abcg2


@<TRIPOS>ATOM
      1 C1         164.2530   128.3560   148.6310 c          1 X5C       0.586100
      2 C2         163.4200   132.5460   150.9390 cc         1 X5C      -0.120100
      3 C3         161.6480   132.1320   149.6380 ca         1 X5C      -0.082800
      4 C4         161.2810   133.0780   150.6210 ca         1 X5C      -0.046200
      5 C5         160.6900   131.7180   148.7060 ca         1 X5C      -0.060000
      6 C7         159.4130   132.2400   148.7790 ca         1 X5C      -0.138000
      7 N          161.8440   128.8460   153.9620 ns         1 X5C      -0.485900
      8 CA         162.7760   128.3040   153.0090 c3         1 X5C       0.035700
      9 C          162.4210   128.7870   151.5990 c          1 X5C       0.593100
     10 O          161.2590   128.8780   151.2410 o          1 X5C      -0.602100
     11 CB         162.7430   126.7760   153.0270 c3         1 X5C      -0.011200
     12 CG         163.2360   126.1720   154.3020 cc         1 X5C      -0.147400
     13 CD1        163.7840   126.7960   155.3870 cd         1 X5C      -0.150100
     14 CD2        163.2400   124.7710   154.6070 ca         1 X5C      -0.096800
     15 NE1        164.1260   125.8730   156.3370 na         1 X5C      -0.225700
     16 CE2        163.8050   124.6250   155.8930 ca         1 X5C      -0.045200
     17 CE3        162.8220   123.6290   153.9150 ca         1 X5C      -0.062000
     18 CZ2        163.9560   123.3800   156.5000 ca         1 X5C      -0.129000
     19 CZ3        162.9680   122.3930   154.5130 ca         1 X5C      -0.141000
     20 CH2        163.5300   122.2700   155.7940 ca         1 X5C      -0.091000
     21 N1         163.4800   129.0410   150.8160 ns         1 X5C      -0.475900
     22 CA1        163.3950   129.3500   149.4170 c3         1 X5C       0.027700
     23 O1         165.1390   127.7170   149.1730 o          1 X5C      -0.605100
     24 CB1        163.8370   130.8000   149.1190 c3         1 X5C      -0.001200
     25 CG1        163.0240   131.8020   149.8640 cd         1 X5C      -0.163400
     26 N2         162.3840   133.3150   151.3880 na         1 X5C      -0.213700
     27 C6         159.9940   133.6050   150.7020 ca         1 X5C      -0.128000
     28 C8         159.0680   133.1730   149.7710 ca         1 X5C      -0.096000
     29 CA2        160.6460   130.6540   155.0480 c3         1 X5C      -0.154400
     30 O2         162.7060   130.9190   153.8620 o          1 X5C      -0.619100
     31 CB2        159.7090   131.4450   154.1310 c3         1 X5C      -0.074400
     32 CG2        158.5290   132.0530   154.8760 c3         1 X5C      -0.075400
     33 CD         157.5640   132.7840   153.9520 c3         1 X5C      -0.075400
     34 C61        156.4060   133.4310   154.6990 c3         1 X5C      -0.089100
     35 C37        164.4580   127.2750   146.4210 c3         1 X5C       0.111700
     36 C38        163.3050   126.2890   146.1290 c3         1 X5C      -0.047100
     37 C39        162.7650   125.7110   147.4080 ca         1 X5C      -0.088300
     38 C40        163.4090   124.6450   148.0330 ca         1 X5C      -0.107000
     39 C41        162.9540   124.1490   149.2470 ca         1 X5C      -0.103000
     40 C42        161.8420   124.7150   149.8580 ca         1 X5C      -0.116000
     41 C43        161.1870   125.7730   149.2430 ca         1 X5C      -0.103000
     42 C44        161.6470   126.2630   148.0270 ca         1 X5C      -0.107000
     43 C45        165.0960   127.8700   145.1340 c6         1 X5C       0.204000
     44 C46        164.0860   128.7330   144.3760 c3         1 X5C      -0.115100
     45 C48        166.0440   126.8550   143.1370 c6         1 X5C       0.191300
     46 C49        166.2540   125.4610   142.5790 c3         1 X5C      -0.094100
     47 C50        167.3430   127.6430   143.3390 c6         1 X5C       0.031500
     48 C51        168.0000   127.9610   142.0240 c          1 X5C       0.573900
     49 C54        166.4320   128.6470   145.3860 c6         1 X5C       0.188200
     50 C55        166.2310   130.0480   145.9630 c3         1 X5C      -0.082100
     51 C56        167.3590   127.8470   146.3240 c3         1 X5C       0.119600
     52 N36        163.9680   128.3000   147.3170 ns         1 X5C      -0.488900
     53 N53        167.0290   128.8430   144.0650 n7         1 X5C      -0.872400
     54 O47        165.4130   126.6980   144.3890 os         1 X5C      -0.478000
     55 O52        168.2880   129.0710   141.6550 o          1 X5C      -0.498100
     56 O57        168.6540   128.4020   146.2450 oh         1 X5C      -0.674000
     57 H1         164.3820   132.5830   151.4250 h4         1 X5C       0.214000
     58 H2         160.9430   131.0000   147.9340 ha         1 X5C       0.101000
     59 H3         158.6630   131.9280   148.0630 ha         1 X5C       0.107000
     60 H4         161.0620   128.2740   154.2400 hn         1 X5C       0.326500
     61 H5         163.7860   128.6360   153.2670 h1         1 X5C       0.077700
     62 H6         161.7230   126.4350   152.8170 hc         1 X5C       0.066200
     63 H7         163.3490   126.4140   152.1900 hc         1 X5C       0.066200
     64 H8         163.9570   127.8450   155.5680 h4         1 X5C       0.218000
     65 H9         164.5420   126.0910   157.2270 hn         1 X5C       0.351000
     66 H10        162.3880   123.7090   152.9250 ha         1 X5C       0.112000
     67 H11        164.3900   123.2840   157.4870 ha         1 X5C       0.113000
     68 H12        162.6470   121.5020   153.9880 ha         1 X5C       0.111000
     69 H13        163.6330   121.2880   156.2380 ha         1 X5C       0.110000
     70 H14        164.4040   128.9390   151.2070 hn         1 X5C       0.329500
     71 H15        162.3520   129.2340   149.1150 h1         1 X5C       0.094700
     72 H16        164.8940   130.9090   149.3740 hc         1 X5C       0.050200
     73 H17        163.7570   130.9710   148.0420 hc         1 X5C       0.050200
     74 H18        162.4250   133.9350   152.1790 hn         1 X5C       0.353000
     75 H19        159.7260   134.3230   151.4670 ha         1 X5C       0.110000
     76 H20        158.0580   133.5620   149.8070 ha         1 X5C       0.107000
     77 H21        161.0090   131.3000   155.8500 hc         1 X5C       0.057700
     78 H22        160.1030   129.8300   155.5170 hc         1 X5C       0.057700
     79 H23        159.3400   130.7900   153.3360 hc         1 X5C       0.057200
     80 H24        160.2750   132.2400   153.6370 hc         1 X5C       0.057200
     81 H25        157.9920   131.2670   155.4180 hc         1 X5C       0.035200
     82 H26        158.9020   132.7470   155.6380 hc         1 X5C       0.035200
     83 H27        158.1090   133.5470   153.3870 hc         1 X5C       0.040200
     84 H28        157.1730   132.0820   153.2100 hc         1 X5C       0.040200
     85 H29        155.7190   133.9320   154.0150 hc         1 X5C       0.031367
     86 H30        155.8330   132.6890   155.2580 hc         1 X5C       0.031367
     87 H31        156.7640   134.1760   155.4110 hc         1 X5C       0.031367
     88 H32        165.2240   126.7150   146.9590 h1         1 X5C       0.089700
     89 H33        162.5030   126.8030   145.5950 hc         1 X5C       0.061700
     90 H34        163.6640   125.4900   145.4820 hc         1 X5C       0.061700
     91 H35        164.2810   124.2010   147.5650 ha         1 X5C       0.108500
     92 H36        163.4670   123.3200   149.7170 ha         1 X5C       0.117000
     93 H37        161.4860   124.3320   150.8060 ha         1 X5C       0.109000
     94 H38        160.3190   126.2200   149.7100 ha         1 X5C       0.117000
     95 H39        161.1250   127.0870   147.5540 ha         1 X5C       0.108500
     96 H40        163.6430   129.4970   145.0130 hc         1 X5C       0.048367
     97 H41        164.5520   129.2560   143.5420 hc         1 X5C       0.048367
     98 H42        163.2750   128.1230   143.9790 hc         1 X5C       0.048367
     99 H43        165.3980   127.4210   142.4520 h1         1 X5C       0.048700
    100 H44        165.3020   124.9320   142.5210 hc         1 X5C       0.046033
    101 H45        166.6670   125.4960   141.5720 hc         1 X5C       0.046033
    102 H46        166.9320   124.8810   143.2070 hc         1 X5C       0.046033
    103 H47        168.0610   126.9710   143.8480 h1         1 X5C       0.050700
    104 H48        168.2430   127.0800   141.4060 h4         1 X5C      -0.013800
    105 H49        165.8060   130.0200   146.9620 hc         1 X5C       0.046367
    106 H50        167.1930   130.5580   146.0300 hc         1 X5C       0.046367
    107 H51        165.5840   130.6540   145.3310 hc         1 X5C       0.046367
    108 H52        166.9750   127.9040   147.3480 h1         1 X5C       0.040200
    109 H53        167.3700   126.7860   146.0440 h1         1 X5C       0.040200
    110 H54        163.1400   128.7920   147.0160 hn         1 X5C       0.308500
    111 H55        167.8450   129.4350   144.1440 hn         1 X5C       0.451000
    112 H57        169.2180   127.9300   146.8630 ho         1 X5C       0.449000
    113 C9         161.8310   130.1600   154.2560 c          1 X5C       0.601100
@<TRIPOS>BOND
     1     1    22 1   
     2     1    23 2   
     3     1    52 1   
     4     2    25 2   
     5     2    26 1   
     6     2    57 1   
     7     3     4 ar  
     8     3     5 ar  
     9     3    25 1   
    10     4    26 1   
    11     4    27 ar  
    12     5     6 ar  
    13     5    58 1   
    14     6    28 ar  
    15     6    59 1   
    16     7     8 1   
    17     7    60 1   
    18     7   113 1   
    19     8     9 1   
    20     8    11 1   
    21     8    61 1   
    22     9    10 2   
    23     9    21 1   
    24    11    12 1   
    25    11    62 1   
    26    11    63 1   
    27    12    13 2   
    28    12    14 1   
    29    13    15 1   
    30    13    64 1   
    31    14    16 ar  
    32    14    17 ar  
    33    15    16 1   
    34    15    65 1   
    35    16    18 ar  
    36    17    19 ar  
    37    17    66 1   
    38    18    20 ar  
    39    18    67 1   
    40    19    20 ar  
    41    19    68 1   
    42    20    69 1   
    43    21    22 1   
    44    21    70 1   
    45    22    24 1   
    46    22    71 1   
    47    24    25 1   
    48    24    72 1   
    49    24    73 1   
    50    26    74 1   
    51    27    28 ar  
    52    27    75 1   
    53    28    76 1   
    54    29    31 1   
    55    29    77 1   
    56    29    78 1   
    57    29   113 1   
    58    30   113 2   
    59    31    32 1   
    60    31    79 1   
    61    31    80 1   
    62    32    33 1   
    63    32    81 1   
    64    32    82 1   
    65    33    34 1   
    66    33    83 1   
    67    33    84 1   
    68    34    85 1   
    69    34    86 1   
    70    34    87 1   
    71    35    36 1   
    72    35    43 1   
    73    35    52 1   
    74    35    88 1   
    75    36    37 1   
    76    36    89 1   
    77    36    90 1   
    78    37    38 ar  
    79    37    42 ar  
    80    38    39 ar  
    81    38    91 1   
    82    39    40 ar  
    83    39    92 1   
    84    40    41 ar  
    85    40    93 1   
    86    41    42 ar  
    87    41    94 1   
    88    42    95 1   
    89    43    44 1   
    90    43    49 1   
    91    43    54 1   
    92    44    96 1   
    93    44    97 1   
    94    44    98 1   
    95    45    46 1   
    96    45    47 1   
    97    45    54 1   
    98    45    99 1   
    99    46   100 1   
   100    46   101 1   
   101    46   102 1   
   102    47    48 1   
   103    47    53 1   
   104    47   103 1   
   105    48    55 2   
   106    48   104 1   
   107    49    50 1   
   108    49    51 1   
   109    49    53 1   
   110    50   105 1   
   111    50   106 1   
   112    50   107 1   
   113    51    56 1   
   114    51   108 1   
   115    51   109 1   
   116    52   110 1   
   117    53   111 1   
   118    56   112 1   
@<TRIPOS>SUBSTRUCTURE
     1 X5C         1 TEMP              0 ****  ****    0 ROOT
