@<TRIPOS>MOLECULE
X5C
  113   118     1     0     0
SMALL
No Charge or Current Charge


@<TRIPOS>ATOM
      1 C1         164.3920   128.2620   148.4430 c          1 X5C       0.586100
      2 C2         163.7020   132.0200   151.4060 cc         1 X5C      -0.120100
      3 C3         161.8530   132.0320   150.0110 ca         1 X5C      -0.082800
      4 C4         161.5600   132.7730   151.1210 ca         1 X5C      -0.046200
      5 C5         160.9280   131.8440   148.9750 ca         1 X5C      -0.060000
      6 C7         159.6620   132.4540   149.1120 ca         1 X5C      -0.138000
      7 N          161.3980   128.7830   153.7490 ns         1 X5C      -0.485900
      8 CA         162.5230   128.2520   152.9450 c3         1 X5C       0.035700
      9 C          162.2910   128.5980   151.4510 c          1 X5C       0.593100
     10 O          161.1770   128.7810   150.9730 o          1 X5C      -0.602100
     11 CB         162.6810   126.7240   153.1380 c3         1 X5C      -0.011200
     12 CG         163.0750   126.2860   154.5300 cc         1 X5C      -0.147400
     13 CD1        163.4840   127.0710   155.6070 cd         1 X5C      -0.150100
     14 CD2        163.1260   124.9300   154.9970 ca         1 X5C      -0.096800
     15 NE1        163.7720   126.2430   156.7200 na         1 X5C      -0.225700
     16 CE2        163.5420   124.9480   156.2990 ca         1 X5C      -0.045200
     17 CE3        162.8310   123.7310   154.3310 ca         1 X5C      -0.062000
     18 CZ2        163.6920   123.7650   157.0360 ca         1 X5C      -0.129000
     19 CZ3        162.9730   122.5240   155.0480 ca         1 X5C      -0.141000
     20 CH2        163.4020   122.5410   156.3970 ca         1 X5C      -0.091000
     21 N1         163.4390   128.6910   150.6910 ns         1 X5C      -0.475900
     22 CA1        163.4790   129.1780   149.2940 c3         1 X5C       0.027700
     23 O1         165.3250   127.6260   148.9160 o          1 X5C      -0.605100
     24 CB1        163.9550   130.6510   149.2400 c3         1 X5C      -0.001200
     25 CG1        163.2050   131.5540   150.1920 cd         1 X5C      -0.163400
     26 N2         162.6520   132.7760   151.9690 na         1 X5C      -0.213700
     27 C6         160.3140   133.3930   151.2840 ca         1 X5C      -0.128000
     28 C8         159.3560   133.2250   150.2610 ca         1 X5C      -0.096000
     29 CA2        160.1170   130.3580   155.1200 c3         1 X5C      -0.154400
     30 O2         162.5040   130.5040   154.7560 o          1 X5C      -0.619100
     31 CB2        159.5570   131.5730   154.3430 c3         1 X5C      -0.074400
     32 CG2        158.1810   132.0460   154.8580 c3         1 X5C      -0.075400
     33 CD         157.6240   133.2500   154.0690 c3         1 X5C      -0.075400
     34 C61        156.2460   133.7200   154.5750 c3         1 X5C      -0.089100
     35 C37        164.5670   127.1760   146.1730 c3         1 X5C       0.111700
     36 C38        163.4900   126.0570   146.0360 c3         1 X5C      -0.047100
     37 C39        162.9940   125.5470   147.3890 ca         1 X5C      -0.088300
     38 C40        163.7710   124.6370   148.1320 ca         1 X5C      -0.107000
     39 C41        163.3380   124.2020   149.3980 ca         1 X5C      -0.103000
     40 C42        162.1260   124.6760   149.9280 ca         1 X5C      -0.116000
     41 C43        161.3470   125.5830   149.1920 ca         1 X5C      -0.103000
     42 C44        161.7770   126.0150   147.9260 ca         1 X5C      -0.107000
     43 C45        165.1320   127.7640   144.8070 c6         1 X5C       0.204000
     44 C46        163.9520   128.4490   144.0230 c3         1 X5C      -0.115100
     45 C48        166.0740   126.8480   142.7180 c6         1 X5C       0.191300
     46 C49        166.4080   125.4550   142.1260 c3         1 X5C      -0.094100
     47 C50        167.3180   127.7900   142.8130 c6         1 X5C       0.031500
     48 C51        167.8830   128.1360   141.4010 c          1 X5C       0.573900
     49 C54        166.4030   128.7350   144.9740 c6         1 X5C       0.188200
     50 C55        166.0530   130.1360   145.5780 c3         1 X5C      -0.082100
     51 C56        167.5180   128.0990   145.8970 c3         1 X5C       0.119600
     52 N36        164.0570   128.1970   147.1050 ns         1 X5C      -0.488900
     53 N53        167.0350   129.0240   143.6470 n7         1 X5C      -0.872400
     54 O47        165.5350   126.5930   144.0390 os         1 X5C      -0.478000
     55 O52        168.8960   128.8110   141.2320 o          1 X5C      -0.498100
     56 O57        168.7750   128.8130   145.8490 oh         1 X5C      -0.674000
     57 H1         164.6590   131.8700   151.8960 h4         1 X5C       0.214000
     58 H2         161.1740   131.2500   148.0990 ha         1 X5C       0.101000
     59 H3         158.9170   132.3300   148.3300 ha         1 X5C       0.107000
     60 H4         160.4800   128.3780   153.6120 hn         1 X5C       0.326500
     61 H5         163.4570   128.7440   153.2490 h1         1 X5C       0.077700
     62 H6         161.7410   126.2340   152.8530 hc         1 X5C       0.066200
     63 H7         163.4370   126.3570   152.4330 hc         1 X5C       0.066200
     64 H8         163.5940   128.1510   155.6640 h4         1 X5C       0.218000
     65 H9         164.0900   126.5390   157.6380 hn         1 X5C       0.351000
     66 H10        162.5040   123.7290   153.2950 ha         1 X5C       0.112000
     67 H11        164.0240   123.7880   158.0720 ha         1 X5C       0.113000
     68 H12        162.7530   121.5770   154.5610 ha         1 X5C       0.111000
     69 H13        163.5100   121.6060   156.9430 ha         1 X5C       0.110000
     70 H14        164.3180   128.4820   151.1510 hn         1 X5C       0.329500
     71 H15        162.4700   129.1170   148.8670 h1         1 X5C       0.094700
     72 H16        165.0270   130.6860   149.4710 hc         1 X5C       0.050200
     73 H17        163.8520   131.0250   148.2130 hc         1 X5C       0.050200
     74 H18        162.6870   133.2450   152.8680 hn         1 X5C       0.353000
     75 H19        160.0910   133.9840   152.1690 ha         1 X5C       0.110000
     76 H20        158.3770   133.6900   150.3560 ha         1 X5C       0.107000
     77 H21        160.2640   130.6490   156.1670 hc         1 X5C       0.057700
     78 H22        159.3870   129.5420   155.0550 hc         1 X5C       0.057700
     79 H23        159.4710   131.3090   153.2810 hc         1 X5C       0.057200
     80 H24        160.2720   132.4030   154.4070 hc         1 X5C       0.057200
     81 H25        157.4680   131.2140   154.7960 hc         1 X5C       0.035200
     82 H26        158.2660   132.3170   155.9180 hc         1 X5C       0.035200
     83 H27        158.3310   134.0870   154.1340 hc         1 X5C       0.040200
     84 H28        157.5410   132.9830   153.0080 hc         1 X5C       0.040200
     85 H29        155.8940   134.5740   153.9850 hc         1 X5C       0.031367
     86 H30        155.5060   132.9150   154.4890 hc         1 X5C       0.031367
     87 H31        156.3040   134.0280   155.6260 hc         1 X5C       0.031367
     88 H32        165.4200   126.6820   146.6550 h1         1 X5C       0.089700
     89 H33        162.6400   126.4330   145.4560 hc         1 X5C       0.061700
     90 H34        163.9020   125.2200   145.4610 hc         1 X5C       0.061700
     91 H35        164.7160   124.2750   147.7350 ha         1 X5C       0.108500
     92 H36        163.9440   123.5020   149.9680 ha         1 X5C       0.117000
     93 H37        161.7920   124.3410   150.9070 ha         1 X5C       0.109000
     94 H38        160.4100   125.9550   149.6040 ha         1 X5C       0.117000
     95 H39        161.1690   126.7240   147.3680 ha         1 X5C       0.108500
     96 H40        163.3770   129.1300   144.6600 hc         1 X5C       0.048367
     97 H41        164.3130   129.0460   143.1780 hc         1 X5C       0.048367
     98 H42        163.2500   127.7100   143.6180 hc         1 X5C       0.048367
     99 H43        165.3000   127.3090   142.0860 h1         1 X5C       0.048700
    100 H44        165.5240   124.8060   142.1330 hc         1 X5C       0.046033
    101 H45        166.7500   125.5260   141.0870 hc         1 X5C       0.046033
    102 H46        167.1950   124.9550   142.7040 hc         1 X5C       0.046033
    103 H47        168.1190   127.2180   143.3020 h1         1 X5C       0.050700
    104 H48        167.3080   127.7520   140.5290 h4         1 X5C      -0.013800
    105 H49        165.7540   130.0740   146.6280 hc         1 X5C       0.046367
    106 H50        166.9170   130.8110   145.5470 hc         1 X5C       0.046367
    107 H51        165.2480   130.6350   145.0280 hc         1 X5C       0.046367
    108 H52        167.1480   128.0740   146.9300 h1         1 X5C       0.040200
    109 H53        167.6750   127.0570   145.5900 h1         1 X5C       0.040200
    110 H54        163.2690   128.7580   146.8070 hn         1 X5C       0.308500
    111 H55        167.9360   129.4770   143.8640 hn         1 X5C       0.451000
    112 H57        169.3980   128.3470   146.4500 ho         1 X5C       0.449000
    113 C9         161.4580   129.9100   154.5340 c          1 X5C       0.601100
@<TRIPOS>BOND
     1     1    22 1   
     2     1    23 2   
     3     1    52 1   
     4     2    25 2   
     5     2    26 1   
     6     2    57 1   
     7     3     4 ar  
     8     3     5 ar  
     9     3    25 1   
    10     4    26 1   
    11     4    27 ar  
    12     5     6 ar  
    13     5    58 1   
    14     6    28 ar  
    15     6    59 1   
    16     7     8 1   
    17     7    60 1   
    18     7   113 1   
    19     8     9 1   
    20     8    11 1   
    21     8    61 1   
    22     9    10 2   
    23     9    21 1   
    24    11    12 1   
    25    11    62 1   
    26    11    63 1   
    27    12    13 2   
    28    12    14 1   
    29    13    15 1   
    30    13    64 1   
    31    14    16 ar  
    32    14    17 ar  
    33    15    16 1   
    34    15    65 1   
    35    16    18 ar  
    36    17    19 ar  
    37    17    66 1   
    38    18    20 ar  
    39    18    67 1   
    40    19    20 ar  
    41    19    68 1   
    42    20    69 1   
    43    21    22 1   
    44    21    70 1   
    45    22    24 1   
    46    22    71 1   
    47    24    25 1   
    48    24    72 1   
    49    24    73 1   
    50    26    74 1   
    51    27    28 ar  
    52    27    75 1   
    53    28    76 1   
    54    29    31 1   
    55    29    77 1   
    56    29    78 1   
    57    29   113 1   
    58    30   113 2   
    59    31    32 1   
    60    31    79 1   
    61    31    80 1   
    62    32    33 1   
    63    32    81 1   
    64    32    82 1   
    65    33    34 1   
    66    33    83 1   
    67    33    84 1   
    68    34    85 1   
    69    34    86 1   
    70    34    87 1   
    71    35    36 1   
    72    35    43 1   
    73    35    52 1   
    74    35    88 1   
    75    36    37 1   
    76    36    89 1   
    77    36    90 1   
    78    37    38 ar  
    79    37    42 ar  
    80    38    39 ar  
    81    38    91 1   
    82    39    40 ar  
    83    39    92 1   
    84    40    41 ar  
    85    40    93 1   
    86    41    42 ar  
    87    41    94 1   
    88    42    95 1   
    89    43    44 1   
    90    43    49 1   
    91    43    54 1   
    92    44    96 1   
    93    44    97 1   
    94    44    98 1   
    95    45    46 1   
    96    45    47 1   
    97    45    54 1   
    98    45    99 1   
    99    46   100 1   
   100    46   101 1   
   101    46   102 1   
   102    47    48 1   
   103    47    53 1   
   104    47   103 1   
   105    48    55 2   
   106    48   104 1   
   107    49    50 1   
   108    49    51 1   
   109    49    53 1   
   110    50   105 1   
   111    50   106 1   
   112    50   107 1   
   113    51    56 1   
   114    51   108 1   
   115    51   109 1   
   116    52   110 1   
   117    53   111 1   
   118    56   112 1   
@<TRIPOS>SUBSTRUCTURE
     1 X5C         1 TEMP              0 ****  ****    0 ROOT
