@<TRIPOS>MOLECULE
X5E
   46    49     1     0     0
SMALL
No Charge or Current Charge


@<TRIPOS>ATOM
      1 O1          46.6310    -3.8980    40.8660 o          1 X5E      -0.712000
      2 C2          47.1200    -3.9140    39.7450 c          1 X5E       0.711600
      3 C3          46.2170    -4.2300    38.5600 ca         1 X5E      -0.104600
      4 C4          46.7290    -4.2610    37.2440 ca         1 X5E      -0.102500
      5 C5          45.8960    -4.5530    36.1510 ca         1 X5E      -0.103500
      6 C6          44.8440    -4.5030    38.7450 ca         1 X5E      -0.102500
      7 C7          44.0100    -4.7940    37.6520 ca         1 X5E      -0.103500
      8 C8          44.5110    -4.8260    36.3230 cp         1 X5E      -0.208500
      9 C9          43.6120    -5.1350    35.1480 cp         1 X5E       0.445500
     10 C10         42.1810    -5.0390    35.2080 ca         1 X5E       0.249900
     11 N11         41.3720    -5.3010    34.1450 nb         1 X5E      -0.625000
     12 C12         42.0220    -5.6630    33.0050 ca         1 X5E       0.233900
     13 C13         43.4430    -5.7680    32.9050 ca         1 X5E       0.431500
     14 N14         43.9670    -6.1470    31.6650 na         1 X5E      -0.101200
     15 C15         43.5330    -7.3020    30.9790 cc         1 X5E      -0.170100
     16 C16         44.2210    -7.2300    29.7730 cd         1 X5E      -0.215200
     17 C17         45.0530    -6.0480    29.7250 ca         1 X5E      -0.146800
     18 C18         44.8670    -5.4030    30.9160 ca         1 X5E       0.023800
     19 C19         45.5270    -4.2030    31.2140 ca         1 X5E      -0.197000
     20 C20         46.4010    -3.6680    30.2340 ca         1 X5E       0.167100
     21 O21         47.1120    -2.4990    30.4270 os         1 X5E      -0.363100
     22 C22         46.8950    -1.6090    31.5400 c3         1 X5E       0.176300
     23 C23         45.5680    -0.8500    31.3120 c3         1 X5E      -0.107600
     24 C24         48.1050    -0.6570    31.5860 c3         1 X5E      -0.107600
     25 C25         46.5890    -4.3500    29.0070 ca         1 X5E      -0.168000
     26 C26         45.9100    -5.5560    28.7350 ca         1 X5E      -0.044000
     27 N27         44.2260    -5.5020    33.9900 nb         1 X5E      -0.702000
     28 O28         48.3040    -3.6870    39.5360 o          1 X5E      -0.712000
     29 H2          47.7820    -4.0560    37.0610 ha         1 X5E       0.131500
     30 H3          46.3360    -4.5590    35.1560 ha         1 X5E       0.097500
     31 H4          44.4140    -4.4930    39.7450 ha         1 X5E       0.131500
     32 H5          42.9640    -5.0100    37.8530 ha         1 X5E       0.097500
     33 H6          41.6760    -4.7290    36.1210 h4         1 X5E       0.037100
     34 H7          41.3880    -5.8700    32.1440 h4         1 X5E       0.023100
     35 H8          42.8250    -8.0240    31.3750 h4         1 X5E       0.210000
     36 H9          44.1360    -7.9650    28.9750 ha         1 X5E       0.198000
     37 H10         45.3670    -3.7210    32.1720 ha         1 X5E       0.161000
     38 H11         46.8590    -2.1580    32.4900 h1         1 X5E       0.057700
     39 H12         45.4050    -0.1190    32.1130 hc         1 X5E       0.047700
     40 H13         45.5870    -0.3120    30.3570 hc         1 X5E       0.047700
     41 H14         44.7120    -1.5340    31.3050 hc         1 X5E       0.047700
     42 H15         48.0020     0.0540    32.4140 hc         1 X5E       0.047700
     43 H16         49.0320    -1.2230    31.7370 hc         1 X5E       0.047700
     44 H17         48.1930    -0.0900    30.6520 hc         1 X5E       0.047700
     45 H18         47.2660    -3.9360    28.2650 ha         1 X5E       0.119000
     46 H19         46.0480    -6.0830    27.7940 ha         1 X5E       0.107000
@<TRIPOS>BOND
     1     1     2 1   
     2     2     3 1   
     3     2    28 1   
     4     3     4 ar  
     5     3     6 ar  
     6     4     5 ar  
     7     4    29 1   
     8     5     8 ar  
     9     5    30 1   
    10     6     7 ar  
    11     6    31 1   
    12     7     8 ar  
    13     7    32 1   
    14     8     9 1   
    15     9    10 ar  
    16     9    27 ar  
    17    10    11 ar  
    18    10    33 1   
    19    11    12 ar  
    20    12    13 ar  
    21    12    34 1   
    22    13    14 1   
    23    13    27 ar  
    24    14    15 1   
    25    14    18 1   
    26    15    16 2   
    27    15    35 1   
    28    16    17 1   
    29    16    36 1   
    30    17    18 ar  
    31    17    26 ar  
    32    18    19 ar  
    33    19    20 ar  
    34    19    37 1   
    35    20    21 1   
    36    20    25 ar  
    37    21    22 1   
    38    22    23 1   
    39    22    24 1   
    40    22    38 1   
    41    23    39 1   
    42    23    40 1   
    43    23    41 1   
    44    24    42 1   
    45    24    43 1   
    46    24    44 1   
    47    25    26 ar  
    48    25    45 1   
    49    26    46 1   
@<TRIPOS>SUBSTRUCTURE
     1 X5E         1 TEMP              0 ****  ****    0 ROOT
