@<TRIPOS>MOLECULE
X5E
   46    49     1     0     0
SMALL
abcg2


@<TRIPOS>ATOM
      1 O1          46.4340    -1.9660    39.5800 o          1 X5E      -0.712000
      2 C2          46.9540    -2.3240    38.5070 c          1 X5E       0.711600
      3 C3          46.0800    -3.1640    37.5760 ca         1 X5E      -0.104600
      4 C4          46.5860    -3.6620    36.3760 ca         1 X5E      -0.102500
      5 C5          45.7990    -4.4230    35.5290 ca         1 X5E      -0.103500
      6 C6          44.7570    -3.4550    37.8980 ca         1 X5E      -0.102500
      7 C7          43.9620    -4.2130    37.0530 ca         1 X5E      -0.103500
      8 C8          44.4730    -4.7110    35.8550 cp         1 X5E      -0.208500
      9 C9          43.6420    -5.5020    34.9310 cp         1 X5E       0.445500
     10 C10         42.5290    -6.2320    35.3400 ca         1 X5E       0.249900
     11 N11         41.7880    -6.8990    34.4660 nb         1 X5E      -0.625000
     12 C12         42.1290    -6.8750    33.1930 ca         1 X5E       0.233900
     13 C13         43.2760    -6.1800    32.7790 ca         1 X5E       0.431500
     14 N14         43.6840    -6.1560    31.4510 na         1 X5E      -0.101200
     15 C15         43.1580    -6.9680    30.4510 cc         1 X5E      -0.170100
     16 C16         43.7230    -6.6630    29.2620 cd         1 X5E      -0.215200
     17 C17         44.6580    -5.6040    29.4990 ca         1 X5E      -0.146800
     18 C18         44.6240    -5.3090    30.8730 ca         1 X5E       0.023800
     19 C19         45.4240    -4.3120    31.4340 ca         1 X5E      -0.197000
     20 C20         46.2750    -3.6130    30.5890 ca         1 X5E       0.167100
     21 O21         47.1210    -2.6480    31.0010 os         1 X5E      -0.363100
     22 C22         47.2130    -2.3000    32.3840 c3         1 X5E       0.176300
     23 C23         46.0800    -1.3730    32.7950 c3         1 X5E      -0.107600
     24 C24         48.5680    -1.6470    32.5740 c3         1 X5E      -0.107600
     25 C25         46.3150    -3.8970    29.2100 ca         1 X5E      -0.168000
     26 C26         45.5170    -4.8800    28.6690 ca         1 X5E      -0.044000
     27 N27         44.0000    -5.5100    33.6500 nb         1 X5E      -0.702000
     28 O28         48.1060    -2.0770    38.1050 o          1 X5E      -0.712000
     29 H2          47.6120    -3.4540    36.1040 ha         1 X5E       0.131500
     30 H3          46.2230    -4.8090    34.6110 ha         1 X5E       0.097500
     31 H4          44.3370    -3.0730    38.8190 ha         1 X5E       0.131500
     32 H5          42.9290    -4.3930    37.3270 ha         1 X5E       0.097500
     33 H6          42.2340    -6.2890    36.3800 h4         1 X5E       0.037100
     34 H7          41.4850    -7.4050    32.5050 h4         1 X5E       0.023100
     35 H8          42.4280    -7.7270    30.6730 h4         1 X5E       0.210000
     36 H9          43.5080    -7.1410    28.3200 ha         1 X5E       0.198000
     37 H10         45.3760    -4.1120    32.4890 ha         1 X5E       0.161000
     38 H11         47.1820    -3.2120    32.9920 h1         1 X5E       0.057700
     39 H12         46.1630    -1.1400    33.8570 hc         1 X5E       0.047700
     40 H13         46.1280    -0.4350    32.2390 hc         1 X5E       0.047700
     41 H14         45.0970    -1.8150    32.6340 hc         1 X5E       0.047700
     42 H15         48.7030    -1.3800    33.6220 hc         1 X5E       0.047700
     43 H16         49.3770    -2.3210    32.2940 hc         1 X5E       0.047700
     44 H17         48.6530    -0.7350    31.9820 hc         1 X5E       0.047700
     45 H18         46.9900    -3.3330    28.5790 ha         1 X5E       0.119000
     46 H19         45.5570    -5.0890    27.6080 ha         1 X5E       0.107000
@<TRIPOS>BOND
     1     1     2 1   
     2     2     3 1   
     3     2    28 1   
     4     3     4 ar  
     5     3     6 ar  
     6     4     5 ar  
     7     4    29 1   
     8     5     8 ar  
     9     5    30 1   
    10     6     7 ar  
    11     6    31 1   
    12     7     8 ar  
    13     7    32 1   
    14     8     9 1   
    15     9    10 ar  
    16     9    27 ar  
    17    10    11 ar  
    18    10    33 1   
    19    11    12 ar  
    20    12    13 ar  
    21    12    34 1   
    22    13    14 1   
    23    13    27 ar  
    24    14    15 1   
    25    14    18 1   
    26    15    16 2   
    27    15    35 1   
    28    16    17 1   
    29    16    36 1   
    30    17    18 ar  
    31    17    26 ar  
    32    18    19 ar  
    33    19    20 ar  
    34    19    37 1   
    35    20    21 1   
    36    20    25 ar  
    37    21    22 1   
    38    22    23 1   
    39    22    24 1   
    40    22    38 1   
    41    23    39 1   
    42    23    40 1   
    43    23    41 1   
    44    24    42 1   
    45    24    43 1   
    46    24    44 1   
    47    25    26 ar  
    48    25    45 1   
    49    26    46 1   
@<TRIPOS>SUBSTRUCTURE
     1 X5E         1 TEMP              0 ****  ****    0 ROOT
