@<TRIPOS>MOLECULE
X5F
   67    68     1     0     0
SMALL
abcg2


@<TRIPOS>ATOM
      1 C02         26.6020     8.6520    14.7160 c          1 X5F       0.635700
      2 C04         29.0360     8.8290    14.6940 c3         1 X5F       0.062700
      3 C05         29.3020     8.7100    13.1880 c          1 X5F       0.588100
      4 C08         30.1080     9.7400    15.3140 c3         1 X5F      -0.062400
      5 C09         30.0000     9.9100    16.8310 c3         1 X5F      -0.206400
      6 C10         29.0390    10.9940    17.3650 c          1 X5F       0.707000
      7 C13         25.3380     9.2300    15.2870 ca         1 X5F      -0.070600
      8 C14         24.2260     9.4780    14.4810 ca         1 X5F      -0.124600
      9 C15         24.3190     9.3580    12.9650 c          1 X5F       0.715600
     10 C18         23.0160     9.9050    15.0850 ca         1 X5F       0.294000
     11 C20         20.5700    10.2560    14.8010 c3         1 X5F       0.186800
     12 C21         20.0220     8.9270    15.3310 c3         1 X5F       0.119600
     13 C23         19.4650     7.9630    13.2080 c3         1 X5F       0.138600
     14 C24         19.4870     6.6140    12.5170 c3         1 X5F       0.091000
     15 C26         17.5610     5.1230    12.8950 c          1 X5F       0.593700
     16 C27         16.9300     4.1260    13.8260 ca         1 X5F      -0.080600
     17 C28         17.6790     3.2600    14.6290 ca         1 X5F      -0.096500
     18 C29         17.0440     2.3450    15.4540 ca         1 X5F      -0.022500
     19 C30         15.6530     2.3060    15.4830 ca         1 X5F      -0.265500
     20 C35         14.8930     3.1570    14.6910 ca         1 X5F      -0.022500
     21 C36         15.5380     4.0600    13.8570 ca         1 X5F      -0.096500
     22 C38         22.9820    10.0940    16.4770 ca         1 X5F      -0.206000
     23 C39         24.1040     9.8510    17.2540 ca         1 X5F      -0.111000
     24 C40         25.2860     9.4140    16.6710 ca         1 X5F      -0.125000
     25 N03         27.7170     9.3540    14.9670 ns         1 X5F      -0.485900
     26 N06         30.0140     7.6290    12.8230 nt         1 X5F      -0.627000
     27 N19         21.9240    10.1870    14.2840 nu         1 X5F      -0.947200
     28 N25         18.7640     5.6010    13.2660 ns         1 X5F      -0.478900
     29 N32         15.2340    -0.2920    15.9050 n8         1 X5F      -1.023100
     30 O01         26.6130     7.5620    14.1320 o          1 X5F      -0.661100
     31 O07         28.9440     9.5720    12.3910 o          1 X5F      -0.572100
     32 O11         28.2530    11.5620    16.5520 o          1 X5F      -0.729500
     33 O12         29.1100    11.2320    18.5930 o          1 X5F      -0.729500
     34 O16         25.2990     9.9030    12.4090 o          1 X5F      -0.720000
     35 O17         23.3790     8.7470    12.3790 o          1 X5F      -0.720000
     36 O22         20.1860     7.8420    14.4270 os         1 X5F      -0.456000
     37 O33         15.4780     1.1880    17.8640 o          1 X5F      -0.559500
     38 O34         13.4200     1.4240    16.4940 o          1 X5F      -0.559500
     39 O37         16.9860     5.4650    11.8600 o          1 X5F      -0.621100
     40 S31         14.8390     1.1590    16.5670 sy         1 X5F       1.157600
     41 H041        29.1190     7.8330    15.1400 h1         1 X5F       0.025700
     42 H082        31.0780     9.3010    15.0730 hc         1 X5F       0.033700
     43 H081        30.0660    10.7160    14.8250 hc         1 X5F       0.033700
     44 H091        29.7100     8.9630    17.2980 hc         1 X5F       0.019700
     45 H092        30.9860    10.1480    17.2360 hc         1 X5F       0.019700
     46 H201        20.4990    10.9960    15.6010 h1         1 X5F       0.032700
     47 H202        19.9380    10.6200    13.9910 h1         1 X5F       0.032700
     48 H212        20.5530     8.6270    16.2340 h1         1 X5F       0.035700
     49 H211        18.9600     9.0560    15.5800 h1         1 X5F       0.035700
     50 H231        19.9240     8.7070    12.5490 h1         1 X5F       0.036200
     51 H232        18.4320     8.2710    13.4090 h1         1 X5F       0.036200
     52 H241        20.5220     6.2900    12.3880 h1         1 X5F       0.083700
     53 H242        19.0270     6.6980    11.5350 h1         1 X5F       0.083700
     54 H281        18.7600     3.2750    14.5980 ha         1 X5F       0.136500
     55 H291        17.6250     1.6670    16.0640 ha         1 X5F       0.133000
     56 H351        13.8140     3.1130    14.7270 ha         1 X5F       0.133000
     57 H361        14.9630     4.7230    13.2270 ha         1 X5F       0.136500
     58 H381        22.0720    10.4320    16.9530 ha         1 X5F       0.072000
     59 H391        24.0510     9.9960    18.3260 ha         1 X5F       0.082000
     60 H401        26.1570     9.2050    17.2770 ha         1 X5F       0.116000
     61 H031        27.6830    10.2450    15.4720 hn         1 X5F       0.396500
     62 H061        30.2850     7.5100    11.8590 hn         1 X5F       0.291000
     63 H062        30.2690     6.9150    13.4850 hn         1 X5F       0.291000
     64 H191        22.0040     9.7260    13.3840 hn         1 X5F       0.516000
     65 H251        19.1260     5.3580    14.1750 hn         1 X5F       0.327500
     66 H1          15.2760    -1.0220    16.6110 hn         1 X5F       0.476000
     67 H322        14.6380    -0.5480    15.1240 hn         1 X5F       0.476000
@<TRIPOS>BOND
     1     1     7 1   
     2     1    25 1   
     3     1    30 2   
     4     2     3 1   
     5     2     4 1   
     6     2    25 1   
     7     2    41 1   
     8     3    26 1   
     9     3    31 2   
    10     4     5 1   
    11     4    42 1   
    12     4    43 1   
    13     5     6 1   
    14     5    44 1   
    15     5    45 1   
    16     6    32 1   
    17     6    33 1   
    18     7     8 ar  
    19     7    24 ar  
    20     8     9 1   
    21     8    10 ar  
    22     9    34 1   
    23     9    35 1   
    24    10    22 ar  
    25    10    27 1   
    26    11    12 1   
    27    11    27 1   
    28    11    46 1   
    29    11    47 1   
    30    12    36 1   
    31    12    48 1   
    32    12    49 1   
    33    13    14 1   
    34    13    36 1   
    35    13    50 1   
    36    13    51 1   
    37    14    28 1   
    38    14    52 1   
    39    14    53 1   
    40    15    16 1   
    41    15    28 1   
    42    15    39 2   
    43    16    17 ar  
    44    16    21 ar  
    45    17    18 ar  
    46    17    54 1   
    47    18    19 ar  
    48    18    55 1   
    49    19    20 ar  
    50    19    40 1   
    51    20    21 ar  
    52    20    56 1   
    53    21    57 1   
    54    22    23 ar  
    55    22    58 1   
    56    23    24 ar  
    57    23    59 1   
    58    24    60 1   
    59    25    61 1   
    60    26    62 1   
    61    26    63 1   
    62    27    64 1   
    63    28    65 1   
    64    29    40 1   
    65    29    66 1   
    66    29    67 1   
    67    37    40 2   
    68    38    40 2   
@<TRIPOS>SUBSTRUCTURE
     1 X5F         1 TEMP              0 ****  ****    0 ROOT
