@<TRIPOS>MOLECULE
X5F
   67    68     1     0     0
SMALL
No Charge or Current Charge


@<TRIPOS>ATOM
      1 C02         26.2800     8.6180    14.5630 c          1 X5F       0.635700
      2 C04         28.7580     8.2210    14.8810 c3         1 X5F       0.062700
      3 C05         29.3130     8.4480    13.4370 c          1 X5F       0.588100
      4 C08         29.8560     8.5000    15.9550 c3         1 X5F      -0.062400
      5 C09         29.3690     8.9090    17.3750 c3         1 X5F      -0.206400
      6 C10         29.1480    10.4310    17.4520 c          1 X5F       0.707000
      7 C13         25.0750     9.3840    15.0760 ca         1 X5F      -0.070600
      8 C14         23.9670     9.6810    14.2310 ca         1 X5F      -0.124600
      9 C15         24.0300     9.4070    12.7500 c          1 X5F       0.715600
     10 C18         22.8210    10.3160    14.7660 ca         1 X5F       0.294000
     11 C20         20.3170    10.7630    14.3900 c3         1 X5F       0.186800
     12 C21         19.7010     9.4890    15.0490 c3         1 X5F       0.119600
     13 C23         19.0260     8.3920    12.9580 c3         1 X5F       0.138600
     14 C24         19.2080     7.0520    12.2100 c3         1 X5F       0.091000
     15 C26         17.3920     5.5580    13.1320 c          1 X5F       0.593700
     16 C27         17.0810     4.3730    14.0300 ca         1 X5F      -0.080600
     17 C28         18.0960     3.6320    14.6870 ca         1 X5F      -0.096500
     18 C29         17.7690     2.5400    15.5110 ca         1 X5F      -0.022500
     19 C30         16.4240     2.1670    15.6970 ca         1 X5F      -0.265500
     20 C35         15.4080     2.8940    15.0480 ca         1 X5F      -0.022500
     21 C36         15.7360     3.9850    14.2250 ca         1 X5F      -0.096500
     22 C38         22.8000    10.6920    16.1220 ca         1 X5F      -0.206000
     23 C39         23.8930    10.4170    16.9530 ca         1 X5F      -0.111000
     24 C40         25.0160     9.7590    16.4370 ca         1 X5F      -0.125000
     25 N03         27.4980     8.9640    15.1100 ns         1 X5F      -0.485900
     26 N06         30.3530     7.6590    13.0670 nt         1 X5F      -0.627000
     27 N19         21.7170    10.5740    13.9480 nu         1 X5F      -0.947200
     28 N25         18.7210     5.8930    12.9770 ns         1 X5F      -0.478900
     29 N32         16.0220    -0.4890    15.7190 n8         1 X5F      -1.023100
     30 O01         26.1810     7.6750    13.7870 o          1 X5F      -0.661100
     31 O07         28.8970     9.2950    12.6600 o          1 X5F      -0.572100
     32 O11         28.0670    10.8680    17.0920 o          1 X5F      -0.729500
     33 O12         30.0900    11.1350    17.7810 o          1 X5F      -0.729500
     34 O16         24.9210     9.9480    12.1100 o          1 X5F      -0.720000
     35 O17         23.1020     8.8030    12.2270 o          1 X5F      -0.720000
     36 O22         19.8020     8.3380    14.1740 os         1 X5F      -0.456000
     37 O33         17.0990     0.4630    17.6720 o          1 X5F      -0.559500
     38 O34         14.6140     0.8350    17.1840 o          1 X5F      -0.559500
     39 O37         16.5140     6.1940    12.5630 o          1 X5F      -0.621100
     40 S31         16.0080     0.7700    16.7500 sy         1 X5F       1.157600
     41 H041        28.5080     7.1550    14.9580 h1         1 X5F       0.025700
     42 H082        30.4740     7.5970    16.0430 hc         1 X5F       0.033700
     43 H081        30.5290     9.2840    15.5850 hc         1 X5F       0.033700
     44 H091        28.4370     8.3600    17.5580 hc         1 X5F       0.019700
     45 H092        30.1760     8.6190    18.0600 hc         1 X5F       0.019700
     46 H201        20.2570    11.5940    15.1040 h1         1 X5F       0.032700
     47 H202        19.7000    11.0500    13.5280 h1         1 X5F       0.032700
     48 H212        20.2320     9.2870    15.9870 h1         1 X5F       0.035700
     49 H211        18.6510     9.6870    15.3040 h1         1 X5F       0.035700
     50 H231        19.3670     9.2060    12.3070 h1         1 X5F       0.036200
     51 H232        17.9620     8.5490    13.1800 h1         1 X5F       0.036200
     52 H241        20.2730     6.9100    11.9860 h1         1 X5F       0.083700
     53 H242        18.6710     7.1010    11.2540 h1         1 X5F       0.083700
     54 H281        19.1460     3.8860    14.5710 ha         1 X5F       0.136500
     55 H291        18.5680     1.9860    16.0020 ha         1 X5F       0.133000
     56 H351        14.3620     2.6180    15.1770 ha         1 X5F       0.133000
     57 H361        14.9320     4.5320    13.7350 ha         1 X5F       0.136500
     58 H381        21.9370    11.1960    16.5460 ha         1 X5F       0.072000
     59 H391        23.8630    10.6990    18.0030 ha         1 X5F       0.082000
     60 H401        25.8310     9.5130    17.1140 ha         1 X5F       0.116000
     61 H031        27.5050     9.7450    15.7660 hn         1 X5F       0.396500
     62 H061        30.7570     7.7720    12.1490 hn         1 X5F       0.291000
     63 H062        30.7110     6.9630    13.7040 hn         1 X5F       0.291000
     64 H191        21.8070    10.0570    13.0640 hn         1 X5F       0.516000
     65 H251        19.3970     5.3460    13.4920 hn         1 X5F       0.327500
     66 H1          16.6450    -1.1180    16.2200 hn         1 X5F       0.476000
     67 H322        15.1090    -0.8890    15.9200 hn         1 X5F       0.476000
@<TRIPOS>BOND
     1     1     7 1   
     2     1    25 1   
     3     1    30 2   
     4     2     3 1   
     5     2     4 1   
     6     2    25 1   
     7     2    41 1   
     8     3    26 1   
     9     3    31 2   
    10     4     5 1   
    11     4    42 1   
    12     4    43 1   
    13     5     6 1   
    14     5    44 1   
    15     5    45 1   
    16     6    32 1   
    17     6    33 1   
    18     7     8 ar  
    19     7    24 ar  
    20     8     9 1   
    21     8    10 ar  
    22     9    34 1   
    23     9    35 1   
    24    10    22 ar  
    25    10    27 1   
    26    11    12 1   
    27    11    27 1   
    28    11    46 1   
    29    11    47 1   
    30    12    36 1   
    31    12    48 1   
    32    12    49 1   
    33    13    14 1   
    34    13    36 1   
    35    13    50 1   
    36    13    51 1   
    37    14    28 1   
    38    14    52 1   
    39    14    53 1   
    40    15    16 1   
    41    15    28 1   
    42    15    39 2   
    43    16    17 ar  
    44    16    21 ar  
    45    17    18 ar  
    46    17    54 1   
    47    18    19 ar  
    48    18    55 1   
    49    19    20 ar  
    50    19    40 1   
    51    20    21 ar  
    52    20    56 1   
    53    21    57 1   
    54    22    23 ar  
    55    22    58 1   
    56    23    24 ar  
    57    23    59 1   
    58    24    60 1   
    59    25    61 1   
    60    26    62 1   
    61    26    63 1   
    62    27    64 1   
    63    28    65 1   
    64    29    40 1   
    65    29    66 1   
    66    29    67 1   
    67    37    40 2   
    68    38    40 2   
@<TRIPOS>SUBSTRUCTURE
     1 X5F         1 TEMP              0 ****  ****    0 ROOT
