@<TRIPOS>MOLECULE
X5G
   71    75     1     0     0
SMALL
bcc


@<TRIPOS>ATOM
      1 C4          -2.8650     1.4190     1.0820 ca         1 X5G       0.609800
      2 C5          -2.3740     2.7000     1.3470 ca         1 X5G      -0.449600
      3 C6          -1.0100     2.8450     1.2180 ca         1 X5G       0.491200
      4 N1          -0.1890     1.8630     0.8690 nb         1 X5G      -0.766000
      5 N3          -2.0710     0.4260     0.7340 nb         1 X5G      -0.816000
      6 CAN          9.6070    -0.5040    -0.8870 c5         1 X5G       0.157300
      7 CAK         10.0330     0.5270    -1.9290 c5         1 X5G      -0.078900
      8 CAL          9.2140     1.7840    -1.5660 c5         1 X5G      -0.078900
      9 CAO          8.3070     1.3330    -0.4150 c5         1 X5G       0.157300
     10 NBG          8.2490    -0.1120    -0.5540 n3         1 X5G      -0.702600
     11 CAP          7.7250    -0.8080     0.5950 c3         1 X5G       0.171800
     12 CAM          6.2660    -0.5220     0.8680 c3         1 X5G       0.143400
     13 CBE          4.1440    -0.7710    -0.1050 ca         1 X5G       0.078100
     14 CAZ          3.5450     0.4290    -0.4880 ca         1 X5G      -0.064800
     15 CAC          4.3610     1.5470    -1.0680 c3         1 X5G      -0.043300
     16 CAH          2.1680     0.5720    -0.3540 ca         1 X5G      -0.149500
     17 CAY          3.3810    -1.8310     0.3880 ca         1 X5G      -0.064800
     18 CAB          4.0260    -3.1370     0.7500 c3         1 X5G      -0.043300
     19 CAG          2.0100    -1.6570     0.5220 ca         1 X5G      -0.149500
     20 CBA          1.3930    -0.4590     0.1690 ca         1 X5G       0.166600
     21 C2          -0.7640     0.6860     0.6430 ca         1 X5G       0.941900
     22 NBI         -4.2160     1.1230     1.1670 na         1 X5G      -0.106900
     23 CAJ         -4.7840    -0.0830     0.8260 cc         1 X5G      -0.077300
     24 CAI         -5.2140     1.9720     1.6040 cc         1 X5G      -0.151300
     25 CAX         -6.4030     1.3120     1.5420 cd         1 X5G      -0.123300
     26 CAA         -7.7360     1.8540     1.9400 c3         1 X5G      -0.017800
     27 CBB         -6.1270    -0.0050     1.0440 cd         1 X5G      -0.161300
     28 CAQ         -7.1250    -1.0810     0.7550 c3         1 X5G       0.241100
     29 NBH         -7.3090    -1.2580    -0.6670 nq         1 X5G      -0.695600
     30 CAS         -8.3770    -2.1600    -1.1090 cy         1 X5G       0.130300
     31 CAR         -7.9080    -0.1540    -1.4210 cy         1 X5G       0.130300
     32 CBF         -8.7120    -1.1700    -2.2390 cy         1 X5G       0.111100
     33 OAD         -8.0890    -1.4330    -3.4680 oh         1 X5G      -0.571800
     34 H1          -2.9940     3.5360     1.6260 ha         1 X5G       0.159000
     35 H2          -0.5520     3.8100     1.4060 h4         1 X5G       0.024100
     36 H4          10.2710    -0.4520    -0.0070 h1         1 X5G       0.033450
     37 H5          11.1080     0.7030    -1.9060 hc         1 X5G       0.046450
     38 H6           9.7820     0.1830    -2.9330 hc         1 X5G       0.046450
     39 H7           9.8450     2.6180    -1.2600 hc         1 X5G       0.046450
     40 H8           8.6270     2.1260    -2.4180 hc         1 X5G       0.046450
     41 H9           8.7470     1.6240     0.5540 h1         1 X5G       0.033450
     42 H10          7.3140     1.7810    -0.4660 h1         1 X5G       0.033450
     43 H12          7.8510    -1.8840     0.4390 h1         1 X5G       0.037700
     44 H13          8.2820    -0.5580     1.5160 h1         1 X5G       0.037700
     45 H14          5.9650    -1.0690     1.7690 h1         1 X5G       0.027700
     46 H15          6.1060     0.5420     1.0750 h1         1 X5G       0.027700
     47 H16          5.0880     1.1840    -1.7940 hc         1 X5G       0.045200
     48 H17          3.7230     2.2780    -1.5630 hc         1 X5G       0.045200
     49 H18          4.9200     2.0800    -0.2960 hc         1 X5G       0.045200
     50 H19          1.7040     1.4950    -0.6680 ha         1 X5G       0.143000
     51 H20          4.7960    -3.0180     1.5120 hc         1 X5G       0.045200
     52 H21          3.2870    -3.8370     1.1380 hc         1 X5G       0.045200
     53 H22          4.5030    -3.6010    -0.1140 hc         1 X5G       0.045200
     54 H23          1.4110    -2.4720     0.9140 ha         1 X5G       0.143000
     55 H25         -4.1830    -0.8940     0.4530 h4         1 X5G       0.191000
     56 H26         -5.0040     2.9750     1.9380 h4         1 X5G       0.166000
     57 H27         -8.4500     1.8140     1.1150 hc         1 X5G       0.037367
     58 H28         -8.1710     1.2840     2.7630 hc         1 X5G       0.037367
     59 H29         -7.6600     2.8920     2.2610 hc         1 X5G       0.037367
     60 H30         -6.7920    -2.0340     1.1750 h1         1 X5G       0.035200
     61 H31         -8.0780    -0.8380     1.2550 h1         1 X5G       0.035200
     62 H33         -8.0590    -3.1670    -1.3920 h1         1 X5G       0.052950
     63 H34         -9.2040    -2.2400    -0.3890 h1         1 X5G       0.052950
     64 H35         -8.5690     0.4800    -0.8160 h1         1 X5G       0.052950
     65 H36         -7.2100     0.4880    -1.9650 h1         1 X5G       0.052950
     66 H37         -9.7750    -0.9440    -2.3620 h1         1 X5G       0.041700
     67 H38         -8.5400    -2.1770    -3.8780 ho         1 X5G       0.401000
     68 NAV          0.0020    -0.3810     0.2990 nu         1 X5G      -0.736300
     69 OAW          5.4920    -0.9330    -0.2530 os         1 X5G      -0.323900
     70 H3           9.6380    -1.5320    -1.2560 h1         1 X5G       0.033450
     71 H24         -0.4960    -1.2580     0.2870 hn         1 X5G       0.456800
@<TRIPOS>BOND
     1     1     2 ar  
     2     1     5 ar  
     3     1    22 1   
     4     2     3 ar  
     5     2    34 1   
     6     3     4 ar  
     7     3    35 1   
     8     4    21 ar  
     9     5    21 ar  
    10     6     7 1   
    11     6    10 1   
    12     6    36 1   
    13     6    70 1   
    14     7     8 1   
    15     7    37 1   
    16     7    38 1   
    17     8     9 1   
    18     8    39 1   
    19     8    40 1   
    20     9    10 1   
    21     9    41 1   
    22     9    42 1   
    23    10    11 1   
    24    11    12 1   
    25    11    43 1   
    26    11    44 1   
    27    12    45 1   
    28    12    46 1   
    29    12    69 1   
    30    13    14 ar  
    31    13    17 ar  
    32    13    69 1   
    33    14    15 1   
    34    14    16 ar  
    35    15    47 1   
    36    15    48 1   
    37    15    49 1   
    38    16    20 ar  
    39    16    50 1   
    40    17    18 1   
    41    17    19 ar  
    42    18    51 1   
    43    18    52 1   
    44    18    53 1   
    45    19    20 ar  
    46    19    54 1   
    47    20    68 1   
    48    21    68 1   
    49    22    23 1   
    50    22    24 1   
    51    23    27 2   
    52    23    55 1   
    53    24    25 2   
    54    24    56 1   
    55    25    26 1   
    56    25    27 1   
    57    26    57 1   
    58    26    58 1   
    59    26    59 1   
    60    27    28 1   
    61    28    29 1   
    62    28    60 1   
    63    28    61 1   
    64    29    30 1   
    65    29    31 1   
    66    30    32 1   
    67    30    62 1   
    68    30    63 1   
    69    31    32 1   
    70    31    64 1   
    71    31    65 1   
    72    32    33 1   
    73    32    66 1   
    74    33    67 1   
    75    68    71 1   
@<TRIPOS>SUBSTRUCTURE
     1 X5G         1 TEMP              0 ****  ****    0 ROOT
