@<TRIPOS>MOLECULE
X5G
   71    75     1     0     0
SMALL
No Charge or Current Charge


@<TRIPOS>ATOM
      1 C4          -2.9820     1.0820     1.0420 ca         1 X5G       0.281500
      2 C5          -2.5830     2.4370     1.0560 ca         1 X5G      -0.301000
      3 C6          -1.2160     2.7390     0.9890 ca         1 X5G       0.162900
      4 N1          -0.2890     1.7700     0.9090 nb         1 X5G      -0.240000
      5 N3          -2.0320     0.1220     0.9580 nb         1 X5G      -0.290000
      6 CAN          9.8180    -0.3550    -1.1060 c5         1 X5G       0.157300
      7 CAK          9.9290     0.4720    -2.4160 c5         1 X5G      -0.078900
      8 CAL          8.9570     1.6730    -2.1850 c5         1 X5G      -0.078900
      9 CAO          8.3990     1.4310    -0.7580 c5         1 X5G       0.157300
     10 NBG          8.4430    -0.0440    -0.6730 n3         1 X5G      -0.702600
     11 CAP          8.0420    -0.6340     0.6340 c3         1 X5G       0.171800
     12 CAM          6.5720    -0.3840     1.0650 c3         1 X5G       0.166600
     13 CBE          4.3310    -0.9010     0.2950 ca         1 X5G       0.078100
     14 CAZ          3.6570     0.2040    -0.2710 ca         1 X5G      -0.064800
     15 CAC          4.4080     1.2570    -1.0810 c3         1 X5G      -0.043300
     16 CAH          2.2670     0.3310    -0.0890 ca         1 X5G      -0.131500
     17 CAY          3.6130    -1.8830     1.0120 ca         1 X5G      -0.064800
     18 CAB          4.3240    -3.0940     1.6070 c3         1 X5G      -0.043300
     19 CAG          2.2220    -1.7360     1.1790 ca         1 X5G      -0.131500
     20 CBA          1.5440    -0.6270     0.6480 ca         1 X5G       0.305000
     21 C2          -0.7510     0.5090     0.8860 ca         1 X5G       0.415900
     22 NBI         -4.3510     0.7970     1.1200 na         1 X5G      -0.005500
     23 CAJ         -4.9470    -0.2540     0.4360 cc         1 X5G      -0.110000
     24 CAI         -5.2470     1.4870     1.9290 cc         1 X5G      -0.184000
     25 CAX         -6.4530     0.8650     1.7260 cd         1 X5G      -0.123300
     26 CAA         -7.7570     1.2490     2.3750 c3         1 X5G      -0.017800
     27 CBB         -6.2690    -0.2100     0.8050 cd         1 X5G      -0.161300
     28 CAQ         -7.3440    -1.1500     0.3140 c3         1 X5G       0.241100
     29 NBH         -7.7530    -0.8590    -1.0620 nq         1 X5G      -0.695600
     30 CAS         -8.8910    -1.5880    -1.7020 cy         1 X5G       0.130300
     31 CAR         -8.4220     0.4280    -1.4270 cy         1 X5G       0.130300
     32 CBF         -8.9340    -0.3610    -2.6880 cy         1 X5G       0.134300
     33 OAD         -8.0290    -0.4210    -3.7930 oh         1 X5G      -0.634000
     34 H1          -3.3130     3.2400     1.1100 ha         1 X5G       0.141000
     35 H2          -0.8580     3.7670     0.9990 h4         1 X5G       0.024100
     36 H4          10.5560    -0.0190    -0.3630 h1         1 X5G       0.033450
     37 H5          10.9590     0.7950    -2.6030 hc         1 X5G       0.046450
     38 H6           9.6150    -0.1220    -3.2810 hc         1 X5G       0.046450
     39 H7           9.4610     2.6430    -2.2640 hc         1 X5G       0.046450
     40 H8           8.1500     1.6660    -2.9260 hc         1 X5G       0.046450
     41 H9           9.0430     1.8940     0.0040 h1         1 X5G       0.033450
     42 H10          7.3860     1.8370    -0.6430 h1         1 X5G       0.033450
     43 H12          8.2010    -1.7210     0.6060 h1         1 X5G       0.037700
     44 H13          8.6950    -0.2420     1.4250 h1         1 X5G       0.037700
     45 H14          6.4230    -0.7900     2.0740 h1         1 X5G       0.027700
     46 H15          6.3740     0.6940     1.1050 h1         1 X5G       0.027700
     47 H16          5.1830     0.8050    -1.7100 hc         1 X5G       0.045200
     48 H17          3.7340     1.8100    -1.7470 hc         1 X5G       0.045200
     49 H18          4.8920     1.9860    -0.4210 hc         1 X5G       0.045200
     50 H19          1.7500     1.1700    -0.5420 ha         1 X5G       0.125000
     51 H20          4.9440    -2.8020     2.4630 hc         1 X5G       0.045200
     52 H21          3.6140    -3.8530     1.9560 hc         1 X5G       0.045200
     53 H22          4.9760    -3.5740     0.8680 hc         1 X5G       0.045200
     54 H23          1.6660    -2.4850     1.7360 ha         1 X5G       0.125000
     55 H25         -4.4110    -0.9120    -0.2360 h4         1 X5G       0.173000
     56 H26         -4.9690     2.3230     2.5580 h4         1 X5G       0.148000
     57 H27         -8.5200     1.4770     1.6210 hc         1 X5G       0.037367
     58 H28         -8.1370     0.4360     3.0050 hc         1 X5G       0.037367
     59 H29         -7.6400     2.1360     3.0090 hc         1 X5G       0.037367
     60 H30         -6.9650    -2.1800     0.3590 h1         1 X5G       0.035200
     61 H31         -8.2210    -1.0870     0.9710 h1         1 X5G       0.035200
     62 H33         -8.6500    -2.5510    -2.1670 h1         1 X5G       0.052950
     63 H34         -9.7910    -1.6830    -1.0810 h1         1 X5G       0.052950
     64 H35         -9.2260     0.7430    -0.7490 h1         1 X5G       0.052950
     65 H36         -7.7580     1.2740    -1.6420 h1         1 X5G       0.052950
     66 H37         -9.9350    -0.0810    -3.0320 h1         1 X5G       0.041700
     67 H38         -7.1650    -0.6690    -3.3930 ho         1 X5G       0.440000
     68 NAV          0.1600    -0.5360     0.8360 nu         1 X5G      -0.929900
     69 OAW          5.6890    -1.0350     0.1330 os         1 X5G      -0.347100
     70 H3           9.9730    -1.4280    -1.2810 h1         1 X5G       0.033450
     71 H24         -0.2810    -1.4280     1.0620 hn         1 X5G       0.512000
@<TRIPOS>BOND
     1     1     2 ar  
     2     1     5 ar  
     3     1    22 1   
     4     2     3 ar  
     5     2    34 1   
     6     3     4 ar  
     7     3    35 1   
     8     4    21 ar  
     9     5    21 ar  
    10     6     7 1   
    11     6    10 1   
    12     6    36 1   
    13     6    70 1   
    14     7     8 1   
    15     7    37 1   
    16     7    38 1   
    17     8     9 1   
    18     8    39 1   
    19     8    40 1   
    20     9    10 1   
    21     9    41 1   
    22     9    42 1   
    23    10    11 1   
    24    11    12 1   
    25    11    43 1   
    26    11    44 1   
    27    12    45 1   
    28    12    46 1   
    29    12    69 1   
    30    13    14 ar  
    31    13    17 ar  
    32    13    69 1   
    33    14    15 1   
    34    14    16 ar  
    35    15    47 1   
    36    15    48 1   
    37    15    49 1   
    38    16    20 ar  
    39    16    50 1   
    40    17    18 1   
    41    17    19 ar  
    42    18    51 1   
    43    18    52 1   
    44    18    53 1   
    45    19    20 ar  
    46    19    54 1   
    47    20    68 1   
    48    21    68 1   
    49    22    23 1   
    50    22    24 1   
    51    23    27 2   
    52    23    55 1   
    53    24    25 2   
    54    24    56 1   
    55    25    26 1   
    56    25    27 1   
    57    26    57 1   
    58    26    58 1   
    59    26    59 1   
    60    27    28 1   
    61    28    29 1   
    62    28    60 1   
    63    28    61 1   
    64    29    30 1   
    65    29    31 1   
    66    30    32 1   
    67    30    62 1   
    68    30    63 1   
    69    31    32 1   
    70    31    64 1   
    71    31    65 1   
    72    32    33 1   
    73    32    66 1   
    74    33    67 1   
    75    68    71 1   
@<TRIPOS>SUBSTRUCTURE
     1 X5G         1 TEMP              0 ****  ****    0 ROOT
