@<TRIPOS>MOLECULE
X5H
   24    23     1     0     0
SMALL
No Charge or Current Charge


@<TRIPOS>ATOM
      1 C1          29.8330    -7.5090    19.1930 c2         1 X5H      -0.211200
      2 C2          29.6940    -8.9290    19.7070 c3         1 X5H      -0.012200
      3 C3          29.3350    -9.0210    21.2100 c3         1 X5H      -0.199400
      4 C4          27.9270    -8.4560    21.4850 c          1 X5H       0.722000
      5 C11         29.2720    -7.0330    18.0690 c2         1 X5H      -0.205200
      6 O2          26.9710    -9.2070    21.3560 o          1 X5H      -0.741500
      7 N           28.1910    -4.8710    17.6130 n7         1 X5H      -0.837400
      8 CA          27.0650    -5.3440    16.7360 c3         1 X5H       0.014800
      9 C           25.8000    -4.4040    16.6950 c          1 X5H       0.716000
     10 O           24.7200    -4.8550    17.0540 o          1 X5H      -0.751000
     11 C31         29.4470    -5.6310    17.5230 c3         1 X5H       0.209000
     12 OXT         25.9490    -3.2450    16.3220 o          1 X5H      -0.751000
     13 O3          27.8250    -7.2890    21.8340 o          1 X5H      -0.741500
     14 H1          30.4600    -6.8640    19.8100 ha         1 X5H       0.137000
     15 H7          28.9450    -9.4780    19.1230 hc         1 X5H       0.014200
     16 H3          30.6450    -9.4540    19.5520 hc         1 X5H       0.014200
     17 H4          29.3590   -10.0950    21.4330 hc         1 X5H       0.004700
     18 H5          30.1020    -8.4480    21.7470 hc         1 X5H       0.004700
     19 H6          28.6590    -7.6790    17.4420 ha         1 X5H       0.173000
     20 H           28.4000    -3.9020    17.3390 hn         1 X5H       0.421000
     21 HA2         26.7330    -6.3410    17.0550 h1         1 X5H       0.014700
     22 HA3         27.4190    -5.4400    15.7000 h1         1 X5H       0.014700
     23 H11         29.7850    -5.6820    16.4790 h1         1 X5H      -0.004800
     24 H12         30.2280    -5.1150    18.0960 h1         1 X5H      -0.004800
@<TRIPOS>BOND
     1     1     2 1   
     2     1     5 2   
     3     1    14 1   
     4     2     3 1   
     5     2    15 1   
     6     2    16 1   
     7     3     4 1   
     8     3    17 1   
     9     3    18 1   
    10     4     6 1   
    11     4    13 1   
    12     5    11 1   
    13     5    19 1   
    14     7     8 1   
    15     7    11 1   
    16     7    20 1   
    17     8     9 1   
    18     8    21 1   
    19     8    22 1   
    20     9    10 1   
    21     9    12 1   
    22    11    23 1   
    23    11    24 1   
@<TRIPOS>SUBSTRUCTURE
     1 X5H         1 TEMP              0 ****  ****    0 ROOT
