@<TRIPOS>MOLECULE
X5H
   24    23     1     0     0
SMALL
abcg2


@<TRIPOS>ATOM
      1 C1          29.8400    -7.5500    19.1420 c2         1 X5H      -0.211200
      2 C2          29.7770    -8.9310    19.7130 c3         1 X5H      -0.012200
      3 C3          29.5110    -8.9450    21.2170 c3         1 X5H      -0.199400
      4 C4          28.0820    -8.5180    21.6170 c          1 X5H       0.722000
      5 C11         29.0640    -7.0700    18.1740 c2         1 X5H      -0.205200
      6 O2          27.1480    -8.9980    20.9400 o          1 X5H      -0.741500
      7 N           27.9950    -4.9110    17.6480 n7         1 X5H      -0.837400
      8 CA          26.9250    -5.3540    16.7830 c3         1 X5H       0.014800
      9 C           25.9850    -4.1970    16.3630 c          1 X5H       0.716000
     10 O           24.8770    -4.5350    15.9070 o          1 X5H      -0.751000
     11 C31         29.2070    -5.7100    17.5610 c3         1 X5H       0.209000
     12 OXT         26.4270    -3.0350    16.4830 o          1 X5H      -0.751000
     13 O3          27.9720    -7.7720    22.6100 o          1 X5H      -0.741500
     14 H1          30.6060    -6.9000    19.5650 ha         1 X5H       0.137000
     15 H7          29.0170    -9.5240    19.2000 hc         1 X5H       0.014200
     16 H3          30.7360    -9.4240    19.5210 hc         1 X5H       0.014200
     17 H4          29.6640    -9.9680    21.5820 hc         1 X5H       0.004700
     18 H5          30.2490    -8.3250    21.7340 hc         1 X5H       0.004700
     19 H6          28.2920    -7.7150    17.7580 ha         1 X5H       0.173000
     20 H           28.2070    -3.9610    17.3660 hn         1 X5H       0.421000
     21 HA2         26.3370    -6.1450    17.2590 h1         1 X5H       0.014700
     22 HA3         27.3030    -5.7960    15.8400 h1         1 X5H       0.014700
     23 H11         29.5350    -5.8360    16.5130 h1         1 X5H      -0.004800
     24 H12         30.0070    -5.1720    18.0770 h1         1 X5H      -0.004800
@<TRIPOS>BOND
     1     1     2 1   
     2     1     5 2   
     3     1    14 1   
     4     2     3 1   
     5     2    15 1   
     6     2    16 1   
     7     3     4 1   
     8     3    17 1   
     9     3    18 1   
    10     4     6 1   
    11     4    13 1   
    12     5    11 1   
    13     5    19 1   
    14     7     8 1   
    15     7    11 1   
    16     7    20 1   
    17     8     9 1   
    18     8    21 1   
    19     8    22 1   
    20     9    10 1   
    21     9    12 1   
    22    11    23 1   
    23    11    24 1   
@<TRIPOS>SUBSTRUCTURE
     1 X5H         1 TEMP              0 ****  ****    0 ROOT
