@<TRIPOS>MOLECULE
X5J
   67    72     1     0     0
SMALL
abcg2


@<TRIPOS>ATOM
      1 C4          41.6580     7.6650    19.2780 cc         1 X5J       0.388400
      2 C5          40.5170     9.2570    18.4780 cd         1 X5J       0.092500
      3 C6          45.0170     9.3020    16.7340 ca         1 X5J       0.377900
      4 C7          39.7320     8.1300    18.3320 cc         1 X5J       0.183400
      5 C8          40.0120    10.5060    18.0160 c          1 X5J       0.527500
      6 C10         45.8590     5.8040    15.7720 c5         1 X5J      -0.087400
      7 C13         41.9920     3.7370    20.9770 c3         1 X5J       0.209600
      8 C15         46.1000     7.0920    16.5690 c5         1 X5J       0.258500
      9 C17         40.6650     3.9120    20.2640 c5         1 X5J       0.118300
     10 C20         40.0790     5.7330    18.9310 c5         1 X5J       0.297300
     11 C1          43.8780    10.1220    16.5840 ca         1 X5J      -0.266000
     12 C2          44.0160    11.4380    16.9330 ca         1 X5J       0.141900
     13 C3          46.1630    11.1070    17.4960 ca         1 X5J       0.151900
     14 C9          38.0270     9.1780    17.3930 cd         1 X5J       0.753800
     15 C11         46.2200     6.5800    18.0070 c5         1 X5J      -0.121400
     16 C12         43.7660     4.3910    16.2250 c3         1 X5J       0.223600
     17 C14         45.1280     4.8300    16.7240 c5         1 X5J      -0.080700
     18 C16         45.0990     5.5580    18.0810 c5         1 X5J       0.222300
     19 C18         40.9380     4.7750    18.1070 c5         1 X5J       0.172300
     20 C19         40.6570     3.4500    18.7950 c5         1 X5J       0.151300
     21 N21         45.1640    11.9610    17.3920 nb         1 X5J      -0.213000
     22 N22         46.1590     9.8150    17.2030 nb         1 X5J      -0.282000
     23 N23         41.7120     8.9430    19.0750 nd         1 X5J      -0.573000
     24 N24         38.5050     8.0310    17.8110 nc         1 X5J      -0.712100
     25 N25         40.4740     7.1090    18.8450 na         1 X5J      -0.212500
     26 N26         38.7270    10.3480    17.4770 ns         1 X5J      -0.455400
     27 N27         36.7890     9.2380    16.8860 nv         1 X5J      -1.047200
     28 N28         44.9850     8.0030    16.4010 nu         1 X5J      -0.945100
     29 O29         40.5390    11.6050    18.0420 o          1 X5J      -0.519000
     30 O32         42.9590     5.5680    16.0710 os         1 X5J      -0.614400
     31 O33         43.0820     4.0140    20.0910 os         1 X5J      -0.610400
     32 O34         40.2630     5.2840    20.2460 os         1 X5J      -0.443000
     33 O35         45.2730     4.6210    19.1600 os         1 X5J      -0.572400
     34 O36         40.6260     4.7520    16.7270 os         1 X5J      -0.554400
     35 O37         39.3920     3.0200    18.3760 oh         1 X5J      -0.687000
     36 P38         41.4200     5.6580    15.6620 p5         1 X5J       1.129200
     37 P39         44.4400     4.7420    20.5130 p5         1 X5J       1.141200
     38 S40         41.1060     4.6310    13.8920 sh         1 X5J      -0.459200
     39 S41         45.3350     3.3380    21.7540 sh         1 X5J      -0.504200
     40 H1          42.4250     7.0770    19.7600 h5         1 X5J       0.066100
     41 H2          45.3190     5.9900    14.8420 hc         1 X5J       0.064200
     42 H3          46.8250     5.3850    15.4920 hc         1 X5J       0.064200
     43 H4          42.0220     4.3740    21.8640 h1         1 X5J       0.071200
     44 H5          42.0810     2.6980    21.3020 h1         1 X5J       0.071200
     45 H6          47.0110     7.5960    16.2490 h1         1 X5J       0.093700
     46 H7          39.9300     3.3420    20.8420 h1         1 X5J       0.085700
     47 H8          39.0310     5.6860    18.6150 h2         1 X5J       0.129700
     48 H9          42.9390     9.7250    16.2220 ha         1 X5J       0.143000
     49 H10         43.1720    12.1130    16.8510 h4         1 X5J       0.032100
     50 H11         47.1030    11.5020    17.8680 h5         1 X5J       0.036100
     51 H12         47.1870     6.0850    18.1360 hc         1 X5J       0.081200
     52 H13         46.1350     7.3660    18.7570 hc         1 X5J       0.081200
     53 H14         43.3010     3.6920    16.9250 h1         1 X5J       0.044200
     54 H15         43.8580     3.8880    15.2590 h1         1 X5J       0.044200
     55 H16         45.7180     3.9160    16.8330 hc         1 X5J       0.086700
     56 H17         44.1510     6.0890    18.2000 h1         1 X5J       0.054700
     57 H18         41.9850     5.0300    18.2650 h1         1 X5J       0.060700
     58 H19         41.4310     2.7010    18.5930 h1         1 X5J       0.069700
     59 H20         38.2940    11.1970    17.1360 hn         1 X5J       0.323500
     60 H21         36.3180     8.3690    16.6960 hn         1 X5J       0.504000
     61 H22         36.4620    10.0480    16.3860 hn         1 X5J       0.504000
     62 H23         44.1050     7.6290    16.0830 hn         1 X5J       0.507000
     63 H24         39.1910     2.1800    18.8000 ho         1 X5J       0.512000
     64 H25         41.3760     3.3970    14.3440 hs         1 X5J       0.296800
     65 H26         46.1140     4.2190    22.3960 hs         1 X5J       0.336800
     66 O30         41.0100     7.0670    15.5280 o          1 X5J      -0.441000
     67 O31         44.3070     6.0970    21.0900 o          1 X5J      -0.498000
@<TRIPOS>BOND
     1     1    23 2   
     2     1    25 1   
     3     1    40 1   
     4     2     4 2   
     5     2     5 1   
     6     2    23 1   
     7     3    11 ar  
     8     3    22 ar  
     9     3    28 1   
    10     4    24 1   
    11     4    25 1   
    12     5    26 1   
    13     5    29 2   
    14     6     8 1   
    15     6    17 1   
    16     6    41 1   
    17     6    42 1   
    18     7     9 1   
    19     7    31 1   
    20     7    43 1   
    21     7    44 1   
    22     8    15 1   
    23     8    28 1   
    24     8    45 1   
    25     9    20 1   
    26     9    32 1   
    27     9    46 1   
    28    10    19 1   
    29    10    25 1   
    30    10    32 1   
    31    10    47 1   
    32    11    12 ar  
    33    11    48 1   
    34    12    21 ar  
    35    12    49 1   
    36    13    21 ar  
    37    13    22 ar  
    38    13    50 1   
    39    14    24 2   
    40    14    26 1   
    41    14    27 1   
    42    15    18 1   
    43    15    51 1   
    44    15    52 1   
    45    16    17 1   
    46    16    30 1   
    47    16    53 1   
    48    16    54 1   
    49    17    18 1   
    50    17    55 1   
    51    18    33 1   
    52    18    56 1   
    53    19    20 1   
    54    19    34 1   
    55    19    57 1   
    56    20    35 1   
    57    20    58 1   
    58    26    59 1   
    59    27    60 1   
    60    27    61 1   
    61    28    62 1   
    62    30    36 1   
    63    31    37 1   
    64    33    37 1   
    65    34    36 1   
    66    35    63 1   
    67    36    38 1   
    68    36    66 2   
    69    37    39 1   
    70    37    67 2   
    71    38    64 1   
    72    39    65 1   
@<TRIPOS>SUBSTRUCTURE
     1 X5J         1 TEMP              0 ****  ****    0 ROOT
