@<TRIPOS>MOLECULE
X5J
   67    72     1     0     0
SMALL
No Charge or Current Charge


@<TRIPOS>ATOM
      1 C4          41.6190     8.0080    18.7570 cc         1 X5J       0.388400
      2 C5          40.1690     9.5510    18.3420 cd         1 X5J       0.092500
      3 C6          44.8840     9.0590    17.0510 ca         1 X5J       0.377900
      4 C7          39.4800     8.3630    18.3510 cc         1 X5J       0.183400
      5 C8          39.4260    10.8140    18.0650 c          1 X5J       0.527500
      6 C10         46.1310     6.0520    16.1640 c5         1 X5J      -0.087400
      7 C13         42.2840     4.6380    20.7870 c3         1 X5J       0.209600
      8 C15         46.1760     7.0490    17.3540 c5         1 X5J       0.258500
      9 C17         40.8600     4.2900    20.2340 c5         1 X5J       0.118300
     10 C20         40.1190     5.9430    18.6800 c5         1 X5J       0.297300
     11 C1          44.1060     9.5910    16.0190 ca         1 X5J      -0.266000
     12 C2          44.1630    10.9780    15.8120 ca         1 X5J       0.141900
     13 C3          45.6440    11.1590    17.5550 ca         1 X5J       0.151900
     14 C9          37.5350     9.3680    17.8740 cd         1 X5J       0.753800
     15 C11         46.1550     6.0920    18.5760 c5         1 X5J      -0.121400
     16 C12         43.9390     4.6420    15.8480 c3         1 X5J       0.223600
     17 C14         45.2460     4.8450    16.6560 c5         1 X5J      -0.080700
     18 C16         45.0250     5.1010    18.1880 c5         1 X5J       0.222300
     19 C18         41.1310     4.9640    18.0140 c5         1 X5J       0.172300
     20 C19         40.8370     3.6560    18.8020 c5         1 X5J       0.151300
     21 N21         44.9370    11.7710    16.5810 nb         1 X5J      -0.213000
     22 N22         45.6530     9.8390    17.8330 nb         1 X5J      -0.282000
     23 N23         41.5120     9.3230    18.6090 nd         1 X5J      -0.573000
     24 N24         38.1280     8.2250    18.1130 nc         1 X5J      -0.712100
     25 N25         40.3920     7.3800    18.6280 na         1 X5J      -0.212500
     26 N26         38.0980    10.5910    17.8420 ns         1 X5J      -0.455400
     27 N27         36.2410     9.2910    17.6360 nv         1 X5J      -1.047200
     28 N28         44.8330     7.7000    17.3180 nu         1 X5J      -0.945100
     29 O29         39.9110    11.9360    18.0320 o          1 X5J      -0.519000
     30 O32         43.1240     5.8200    15.9950 os         1 X5J      -0.614400
     31 O33         43.1830     3.5480    20.4950 os         1 X5J      -0.610400
     32 O34         40.0740     5.5130    20.0730 os         1 X5J      -0.443000
     33 O35         45.1730     3.8460    18.8830 os         1 X5J      -0.572400
     34 O36         40.9290     4.7420    16.5930 os         1 X5J      -0.554400
     35 O37         39.5500     3.0740    18.4980 oh         1 X5J      -0.687000
     36 P38         41.5560     5.8360    15.5860 p5         1 X5J       1.129200
     37 P39         44.7850     3.7620    20.4520 p5         1 X5J       1.141200
     38 S40         41.5250     4.7850    13.7790 sh         1 X5J      -0.459200
     39 S41         45.4300     1.8320    20.9120 sh         1 X5J      -0.504200
     40 H1          42.5330     7.4660    18.9690 h5         1 X5J       0.066100
     41 H2          45.7600     6.5130    15.2400 hc         1 X5J       0.064200
     42 H3          47.1450     5.7040    15.9370 hc         1 X5J       0.064200
     43 H4          42.6420     5.5750    20.3430 h1         1 X5J       0.071200
     44 H5          42.2110     4.7970    21.8710 h1         1 X5J       0.071200
     45 H6          47.0430     7.7280    17.3320 h1         1 X5J       0.093700
     46 H7          40.3680     3.6360    20.9660 h1         1 X5J       0.085700
     47 H8          39.1300     5.7920    18.2280 h2         1 X5J       0.129700
     48 H9          43.4750     8.9600    15.4010 ha         1 X5J       0.143000
     49 H10         43.5840    11.4620    15.0270 h4         1 X5J       0.032100
     50 H11         46.2670    11.7960    18.1800 h5         1 X5J       0.036100
     51 H12         47.1180     5.5830    18.6950 hc         1 X5J       0.081200
     52 H13         45.9470     6.6320    19.5050 hc         1 X5J       0.081200
     53 H14         43.4200     3.7510    16.2260 h1         1 X5J       0.044200
     54 H15         44.1970     4.4730    14.7940 h1         1 X5J       0.044200
     55 H16         45.8130     3.9170    16.5180 hc         1 X5J       0.086700
     56 H17         44.0530     5.5400    18.4120 h1         1 X5J       0.054700
     57 H18         42.1520     5.2930    18.1850 h1         1 X5J       0.060700
     58 H19         41.6380     2.9170    18.6570 h1         1 X5J       0.069700
     59 H20         37.5280    11.4020    17.6690 hn         1 X5J       0.323500
     60 H21         35.9240     8.3410    17.4910 hn         1 X5J       0.504000
     61 H22         35.8470     9.9750    17.0030 hn         1 X5J       0.504000
     62 H23         44.1210     7.2130    16.7610 hn         1 X5J       0.507000
     63 H24         39.5400     2.1650    18.8780 ho         1 X5J       0.512000
     64 H25         41.4670     3.6770    14.5530 hs         1 X5J       0.296800
     65 H26         46.1420     2.4330    21.8950 hs         1 X5J       0.336800
     66 O30         40.9140     7.1750    15.5820 o          1 X5J      -0.441000
     67 O31         45.3310     4.8120    21.3500 o          1 X5J      -0.498000
@<TRIPOS>BOND
     1     1    23 2   
     2     1    25 1   
     3     1    40 1   
     4     2     4 2   
     5     2     5 1   
     6     2    23 1   
     7     3    11 ar  
     8     3    22 ar  
     9     3    28 1   
    10     4    24 1   
    11     4    25 1   
    12     5    26 1   
    13     5    29 2   
    14     6     8 1   
    15     6    17 1   
    16     6    41 1   
    17     6    42 1   
    18     7     9 1   
    19     7    31 1   
    20     7    43 1   
    21     7    44 1   
    22     8    15 1   
    23     8    28 1   
    24     8    45 1   
    25     9    20 1   
    26     9    32 1   
    27     9    46 1   
    28    10    19 1   
    29    10    25 1   
    30    10    32 1   
    31    10    47 1   
    32    11    12 ar  
    33    11    48 1   
    34    12    21 ar  
    35    12    49 1   
    36    13    21 ar  
    37    13    22 ar  
    38    13    50 1   
    39    14    24 2   
    40    14    26 1   
    41    14    27 1   
    42    15    18 1   
    43    15    51 1   
    44    15    52 1   
    45    16    17 1   
    46    16    30 1   
    47    16    53 1   
    48    16    54 1   
    49    17    18 1   
    50    17    55 1   
    51    18    33 1   
    52    18    56 1   
    53    19    20 1   
    54    19    34 1   
    55    19    57 1   
    56    20    35 1   
    57    20    58 1   
    58    26    59 1   
    59    27    60 1   
    60    27    61 1   
    61    28    62 1   
    62    30    36 1   
    63    31    37 1   
    64    33    37 1   
    65    34    36 1   
    66    35    63 1   
    67    36    38 1   
    68    36    66 2   
    69    37    39 1   
    70    37    67 2   
    71    38    64 1   
    72    39    65 1   
@<TRIPOS>SUBSTRUCTURE
     1 X5J         1 TEMP              0 ****  ****    0 ROOT
