@<TRIPOS>MOLECULE
X5L
   48    47     1     0     0
SMALL
abcg2


@<TRIPOS>ATOM
      1 N           12.8790    -2.9190    -7.8140 ns         1 X5L      -0.496900
      2 C           13.1450    -2.1190    -8.8640 c          1 X5L       0.600100
      3 O           12.6350    -2.3080    -9.9610 o          1 X5L      -0.617100
      4 C1          11.9070    -3.9700    -7.9190 c3         1 X5L       0.045700
      5 C10         14.3720     1.5370    -8.5870 c3         1 X5L      -0.048400
      6 C11         13.7200     2.9020    -8.8020 c3         1 X5L       0.025500
      7 C12         14.6950     4.0610    -8.4570 c          1 X5L       0.718000
      8 C2          11.9400    -4.8590    -6.6780 c3         1 X5L       0.065600
      9 C3          10.5020    -3.3870    -8.1170 c          1 X5L       0.602100
     10 C4           9.7490    -5.4320    -9.3870 c3         1 X5L      -0.125300
     11 C5           9.7610    -5.3070   -10.9210 c3         1 X5L      -0.045700
     12 C6          10.2640    -6.5620   -11.6270 c3         1 X5L      -0.080100
     13 C7           8.4540    -4.8160   -11.5340 c3         1 X5L      -0.080100
     14 C8          14.0970    -0.9780    -8.6010 c3         1 X5L      -0.149400
     15 C9          13.4240     0.3740    -8.8400 c3         1 X5L      -0.073400
     16 N1           9.5930    -4.1440    -8.7570 ns         1 X5L      -0.463900
     17 N2          13.2310     3.0190   -10.1700 n8         1 X5L      -1.008200
     18 O4          10.2220    -2.2910    -7.6620 o          1 X5L      -0.614100
     19 O5          15.3350     3.9440    -7.3940 o          1 X5L      -0.739000
     20 O6          14.7350     5.0230    -9.2510 o          1 X5L      -0.739000
     21 S           11.4900    -3.9050    -5.1830 sh         1 X5L      -0.414800
     22 S1           8.4760    -6.5190    -8.6340 s6         1 X5L       1.308600
     23 H1          13.2110    -2.6640    -6.8960 hn         1 X5L       0.325500
     24 H2          12.1790    -4.6030    -8.7660 h1         1 X5L       0.079700
     25 H3          15.2390     1.4480    -9.2520 hc         1 X5L       0.039200
     26 H4          14.7510     1.4790    -7.5650 hc         1 X5L       0.039200
     27 H5          12.8980     2.9840    -8.0690 h1         1 X5L      -0.000300
     28 H6          11.2480    -5.6890    -6.8030 h1         1 X5L       0.078700
     29 H7          12.9440    -5.2590    -6.5530 h1         1 X5L       0.078700
     30 H8          10.6960    -5.8810    -9.0870 h2         1 X5L       0.063700
     31 H9          10.5130    -4.5270   -11.0940 hc         1 X5L       0.043700
     32 H10         11.1860    -6.9320   -11.1750 hc         1 X5L       0.030200
     33 H11          9.5310    -7.3650   -11.6030 hc         1 X5L       0.030200
     34 H12         10.4770    -6.3320   -12.6710 hc         1 X5L       0.030200
     35 H13          8.0920    -3.9010   -11.0630 hc         1 X5L       0.030200
     36 H14          8.6090    -4.5950   -12.5900 hc         1 X5L       0.030200
     37 H15          7.6660    -5.5650   -11.4650 hc         1 X5L       0.030200
     38 H16         14.9480    -1.0850    -9.2790 hc         1 X5L       0.046200
     39 H17         14.4950    -1.0210    -7.5850 hc         1 X5L       0.046200
     40 H18         12.5510     0.4630    -8.1830 hc         1 X5L       0.049700
     41 H19         13.0500     0.4110    -9.8650 hc         1 X5L       0.049700
     42 H20          8.6710    -3.7330    -8.8260 hn         1 X5L       0.330500
     43 H21         12.2890     2.6600   -10.2390 hn         1 X5L       0.384000
     44 H22         13.1900     4.0040   -10.3990 hn         1 X5L       0.384000
     45 H25         12.0680    -4.7290    -4.3030 hs         1 X5L       0.173800
     46 O1           8.8930    -6.6440    -7.2230 o          1 X5L      -0.687867
     47 O2           8.5190    -7.7980    -9.3640 o          1 X5L      -0.687867
     48 O3           7.2080    -5.7800    -8.7940 o          1 X5L      -0.687867
@<TRIPOS>BOND
     1     1     2 1   
     2     1     4 1   
     3     1    23 1   
     4     2     3 2   
     5     2    14 1   
     6     4     8 1   
     7     4     9 1   
     8     4    24 1   
     9     5     6 1   
    10     5    15 1   
    11     5    25 1   
    12     5    26 1   
    13     6     7 1   
    14     6    17 1   
    15     6    27 1   
    16     7    19 1   
    17     7    20 1   
    18     8    21 1   
    19     8    28 1   
    20     8    29 1   
    21     9    16 1   
    22     9    18 2   
    23    10    11 1   
    24    10    16 1   
    25    10    22 1   
    26    10    30 1   
    27    11    12 1   
    28    11    13 1   
    29    11    31 1   
    30    12    32 1   
    31    12    33 1   
    32    12    34 1   
    33    13    35 1   
    34    13    36 1   
    35    13    37 1   
    36    14    15 1   
    37    14    38 1   
    38    14    39 1   
    39    15    40 1   
    40    15    41 1   
    41    16    42 1   
    42    17    43 1   
    43    17    44 1   
    44    21    45 1   
    45    22    46 1   
    46    22    47 1   
    47    22    48 1   
@<TRIPOS>SUBSTRUCTURE
     1 X5L         1 TEMP              0 ****  ****    0 ROOT
