@<TRIPOS>MOLECULE
X5L
   48    47     1     0     0
SMALL
No Charge or Current Charge


@<TRIPOS>ATOM
      1 N           12.1900    -2.4630    -7.7090 ns         1 X5L      -0.496900
      2 C           13.4240    -2.0890    -8.1860 c          1 X5L       0.600100
      3 O           14.0940    -2.8180    -8.9050 o          1 X5L      -0.617100
      4 C1          11.5390    -3.7710    -7.9600 c3         1 X5L       0.045700
      5 C10         14.3140     1.7400    -8.4390 c3         1 X5L      -0.048400
      6 C11         14.1920     2.8310    -9.5430 c3         1 X5L       0.025500
      7 C12         14.3370     4.3010    -8.9450 c          1 X5L       0.718000
      8 C2          12.2420    -4.9120    -7.1790 c3         1 X5L       0.065600
      9 C3          10.0210    -3.6970    -7.6080 c          1 X5L       0.602100
     10 C4           9.4700    -5.6420    -9.1970 c3         1 X5L      -0.125300
     11 C5           9.2580    -4.9090   -10.5700 c3         1 X5L      -0.045700
     12 C6          10.0280    -5.5530   -11.7470 c3         1 X5L      -0.080100
     13 C7           7.7790    -4.6350   -10.9340 c3         1 X5L      -0.080100
     14 C8          13.9060    -0.7080    -7.7260 c3         1 X5L      -0.149400
     15 C9          13.8370     0.3310    -8.8720 c3         1 X5L      -0.073400
     16 N1           9.1950    -4.7040    -8.0660 ns         1 X5L      -0.463900
     17 N2          15.0760     2.5030   -10.7200 n8         1 X5L      -1.008200
     18 O4           9.5460    -2.8050    -6.9170 o          1 X5L      -0.614100
     19 O5          15.1080     4.4990    -8.0120 o          1 X5L      -0.739000
     20 O6          13.6670     5.1930    -9.4490 o          1 X5L      -0.739000
     21 S           12.4590    -4.5900    -5.3610 sh         1 X5L      -0.414800
     22 S1           8.6150    -7.2890    -8.9740 s6         1 X5L       1.308600
     23 H1          11.7080    -1.8010    -7.1110 hn         1 X5L       0.325500
     24 H2          11.6140    -3.9860    -9.0330 h1         1 X5L       0.079700
     25 H3          15.3540     1.6830    -8.0920 hc         1 X5L       0.039200
     26 H4          13.7130     2.0540    -7.5760 hc         1 X5L       0.039200
     27 H5          13.1630     2.7700    -9.9240 h1         1 X5L      -0.000300
     28 H6          11.6810    -5.8480    -7.2980 h1         1 X5L       0.078700
     29 H7          13.2390    -5.0730    -7.6100 h1         1 X5L       0.078700
     30 H8          10.5240    -5.9230    -9.1330 h2         1 X5L       0.063700
     31 H9           9.7160    -3.9190   -10.4550 hc         1 X5L       0.043700
     32 H10         11.0630    -5.7770   -11.4600 hc         1 X5L       0.030200
     33 H11          9.5520    -6.4790   -12.0860 hc         1 X5L       0.030200
     34 H12         10.0580    -4.8670   -12.6010 hc         1 X5L       0.030200
     35 H13          7.2500    -4.1590   -10.0990 hc         1 X5L       0.030200
     36 H14          7.7180    -3.9600   -11.7960 hc         1 X5L       0.030200
     37 H15          7.2550    -5.5600   -11.1980 hc         1 X5L       0.030200
     38 H16         14.9490    -0.7920    -7.3970 hc         1 X5L       0.046200
     39 H17         13.2840    -0.3520    -6.8970 hc         1 X5L       0.046200
     40 H18         12.8030     0.3950    -9.2350 hc         1 X5L       0.049700
     41 H19         14.4490    -0.0250    -9.7100 hc         1 X5L       0.049700
     42 H20          8.2400    -4.6540    -7.7270 hn         1 X5L       0.330500
     43 H21         14.8100     1.5860   -11.0960 hn         1 X5L       0.384000
     44 H22         14.8650     3.1540   -11.4870 hn         1 X5L       0.384000
     45 H25         13.0920    -5.7540    -5.0770 hs         1 X5L       0.173800
     46 O1           9.2030    -7.8130    -7.7310 o          1 X5L      -0.687867
     47 O2           8.9600    -8.0730   -10.1680 o          1 X5L      -0.687867
     48 O3           7.1880    -6.9510    -8.8580 o          1 X5L      -0.687867
@<TRIPOS>BOND
     1     1     2 1   
     2     1     4 1   
     3     1    23 1   
     4     2     3 2   
     5     2    14 1   
     6     4     8 1   
     7     4     9 1   
     8     4    24 1   
     9     5     6 1   
    10     5    15 1   
    11     5    25 1   
    12     5    26 1   
    13     6     7 1   
    14     6    17 1   
    15     6    27 1   
    16     7    19 1   
    17     7    20 1   
    18     8    21 1   
    19     8    28 1   
    20     8    29 1   
    21     9    16 1   
    22     9    18 2   
    23    10    11 1   
    24    10    16 1   
    25    10    22 1   
    26    10    30 1   
    27    11    12 1   
    28    11    13 1   
    29    11    31 1   
    30    12    32 1   
    31    12    33 1   
    32    12    34 1   
    33    13    35 1   
    34    13    36 1   
    35    13    37 1   
    36    14    15 1   
    37    14    38 1   
    38    14    39 1   
    39    15    40 1   
    40    15    41 1   
    41    16    42 1   
    42    17    43 1   
    43    17    44 1   
    44    21    45 1   
    45    22    46 1   
    46    22    47 1   
    47    22    48 1   
@<TRIPOS>SUBSTRUCTURE
     1 X5L         1 TEMP              0 ****  ****    0 ROOT
