@<TRIPOS>MOLECULE
X5M
   42    43     1     0     0
SMALL
abcg2


@<TRIPOS>ATOM
      1 C01        -17.3520   -21.7190    38.3240 c3         1 X5M      -0.116100
      2 C02        -18.8450   -21.4540    38.2290 c3         1 X5M       0.204800
      3 N03        -19.5970   -22.3100    39.1410 nh         1 X5M      -0.817400
      4 C04        -20.7880   -22.9450    38.5860 c3         1 X5M       0.204800
      5 C05        -21.9270   -22.0000    38.2240 c3         1 X5M      -0.116100
      6 C06        -19.7100   -21.8500    40.4620 ca         1 X5M       0.339000
      7 C07        -20.1950   -20.5810    40.7760 ca         1 X5M      -0.156000
      8 C08        -20.2920   -20.1310    42.0800 ca         1 X5M      -0.058000
      9 C09        -19.8820   -20.9240    43.1510 ca         1 X5M      -0.126900
     10 C10        -19.3530   -22.1790    42.8600 ca         1 X5M      -0.026000
     11 C11        -19.2860   -22.6220    41.5530 ca         1 X5M      -0.166200
     12 N12        -18.6800   -23.9280    41.3450 no         1 X5M       0.700200
     13 O13        -19.2150   -24.7040    40.5940 o          1 X5M      -0.391000
     14 O14        -17.6610   -24.1620    41.9560 o          1 X5M      -0.391000
     15 C15        -19.9610   -20.4510    44.5460 ce         1 X5M       0.386900
     16 N16        -19.4400   -21.1990    45.4400 n2         1 X5M      -0.429300
     17 N17        -19.4560   -20.7870    46.7300 ns         1 X5M      -0.272900
     18 C18        -20.2700   -19.8360    47.2700 c          1 X5M       0.554000
     19 O19        -20.2610   -19.5970    48.4610 o          1 X5M      -0.523000
     20 C20        -21.1840   -19.1900    46.2700 c6         1 X5M      -0.169400
     21 C21        -20.5540   -19.1100    44.8840 c6         1 X5M      -0.124000
     22 C22        -19.4680   -18.0330    44.8070 c3         1 X5M      -0.090100
     23 H1         -16.8050   -21.1050    37.6080 hc         1 X5M       0.040700
     24 H2         -16.9690   -21.4860    39.3190 hc         1 X5M       0.040700
     25 H3         -17.1320   -22.7660    38.1150 hc         1 X5M       0.040700
     26 H4         -19.0380   -20.3890    38.3990 h1         1 X5M       0.050450
     27 H5         -19.1930   -21.6590    37.2150 h1         1 X5M       0.050450
     28 H6         -21.1460   -23.6890    39.2980 h1         1 X5M       0.050450
     29 H7         -20.4750   -23.4990    37.6980 h1         1 X5M       0.050450
     30 H8         -22.7470   -22.5620    37.7730 hc         1 X5M       0.040700
     31 H9         -22.3240   -21.4900    39.1020 hc         1 X5M       0.040700
     32 H10        -21.6130   -21.2410    37.5060 hc         1 X5M       0.040700
     33 H11        -20.5110   -19.9270    39.9740 ha         1 X5M       0.127000
     34 H12        -20.6970   -19.1420    42.2460 ha         1 X5M       0.121000
     35 H13        -19.0010   -22.8100    43.6650 ha         1 X5M       0.163000
     36 H15        -21.4720   -18.2010    46.6270 hc         1 X5M       0.083200
     37 H16        -22.0970   -19.7940    46.2340 hc         1 X5M       0.083200
     38 H17        -21.3460   -18.8590    44.1780 hc         1 X5M       0.068700
     39 H18        -19.8930   -17.0580    45.0460 hc         1 X5M       0.046367
     40 H19        -18.6560   -18.2280    45.5080 hc         1 X5M       0.046367
     41 H20        -19.0360   -17.9740    43.8080 hc         1 X5M       0.046367
     42 H14        -18.9220   -21.3740    47.3530 hn         1 X5M       0.353500
@<TRIPOS>BOND
     1     1     2 1   
     2     1    23 1   
     3     1    24 1   
     4     1    25 1   
     5     2     3 1   
     6     2    26 1   
     7     2    27 1   
     8     3     4 1   
     9     3     6 1   
    10     4     5 1   
    11     4    28 1   
    12     4    29 1   
    13     5    30 1   
    14     5    31 1   
    15     5    32 1   
    16     6     7 ar  
    17     6    11 ar  
    18     7     8 ar  
    19     7    33 1   
    20     8     9 ar  
    21     8    34 1   
    22     9    10 ar  
    23     9    15 1   
    24    10    11 ar  
    25    10    35 1   
    26    11    12 1   
    27    12    13 1   
    28    12    14 1   
    29    15    16 2   
    30    15    21 1   
    31    16    17 1   
    32    17    18 1   
    33    17    42 1   
    34    18    19 2   
    35    18    20 1   
    36    20    21 1   
    37    20    36 1   
    38    20    37 1   
    39    21    22 1   
    40    21    38 1   
    41    22    39 1   
    42    22    40 1   
    43    22    41 1   
@<TRIPOS>SUBSTRUCTURE
     1 X5M         1 TEMP              0 ****  ****    0 ROOT
