@<TRIPOS>MOLECULE
X5M
   42    43     1     0     0
SMALL
No Charge or Current Charge


@<TRIPOS>ATOM
      1 C01        -17.3120   -21.6120    38.6950 c3         1 X5M      -0.116100
      2 C02        -18.7650   -21.4980    38.2000 c3         1 X5M       0.204800
      3 N03        -19.7450   -22.1590    39.0890 nh         1 X5M      -0.817400
      4 C04        -20.8330   -22.9360    38.4590 c3         1 X5M       0.204800
      5 C05        -21.9060   -22.0590    37.7910 c3         1 X5M      -0.116100
      6 C06        -19.8360   -21.7950    40.4470 ca         1 X5M       0.339000
      7 C07        -20.3930   -20.5540    40.7860 ca         1 X5M      -0.156000
      8 C08        -20.4720   -20.1370    42.1250 ca         1 X5M      -0.058000
      9 C09        -19.9800   -20.9550    43.1700 ca         1 X5M      -0.126900
     10 C10        -19.4140   -22.2050    42.8170 ca         1 X5M      -0.026000
     11 C11        -19.3500   -22.6220    41.4710 ca         1 X5M      -0.166200
     12 N12        -18.7350   -23.9200    41.1410 no         1 X5M       0.700200
     13 O13        -19.4880   -24.8260    40.7600 o          1 X5M      -0.391000
     14 O14        -17.5860   -24.1180    41.5570 o          1 X5M      -0.391000
     15 C15        -20.0470   -20.5350    44.6210 ce         1 X5M       0.386900
     16 N16        -19.6120   -21.3510    45.5430 n2         1 X5M      -0.429300
     17 N17        -19.3600   -20.9000    46.8360 ns         1 X5M      -0.272900
     18 C18        -20.0200   -19.8270    47.4180 c          1 X5M       0.554000
     19 O19        -19.7650   -19.4480    48.5510 o          1 X5M      -0.523000
     20 C20        -21.0170   -19.0960    46.5110 c6         1 X5M      -0.169400
     21 C21        -20.5890   -19.1350    45.0120 c6         1 X5M      -0.124000
     22 C22        -19.5230   -18.0420    44.7120 c3         1 X5M      -0.090100
     23 H1         -16.6320   -21.1270    37.9850 hc         1 X5M       0.040700
     24 H2         -17.1910   -21.1270    39.6700 hc         1 X5M       0.040700
     25 H3         -17.0190   -22.6640    38.7870 hc         1 X5M       0.040700
     26 H4         -19.0220   -20.4340    38.0960 h1         1 X5M       0.050450
     27 H5         -18.8170   -21.9370    37.1940 h1         1 X5M       0.050450
     28 H6         -21.3230   -23.5650    39.2150 h1         1 X5M       0.050450
     29 H7         -20.4120   -23.6200    37.7090 h1         1 X5M       0.050450
     30 H8         -22.6860   -22.6890    37.3470 hc         1 X5M       0.040700
     31 H9         -22.3770   -21.3970    38.5260 hc         1 X5M       0.040700
     32 H10        -21.4680   -21.4440    36.9960 hc         1 X5M       0.040700
     33 H11        -20.7670   -19.9060    39.9990 ha         1 X5M       0.127000
     34 H12        -20.9160   -19.1660    42.3250 ha         1 X5M       0.121000
     35 H13        -19.0200   -22.8680    43.5860 ha         1 X5M       0.163000
     36 H15        -21.2320   -18.0900    46.8940 hc         1 X5M       0.083200
     37 H16        -21.9430   -19.6820    46.5750 hc         1 X5M       0.083200
     38 H17        -21.4750   -18.8960    44.4100 hc         1 X5M       0.068700
     39 H18        -19.9040   -17.0410    44.9510 hc         1 X5M       0.046367
     40 H19        -18.6120   -18.2000    45.3020 hc         1 X5M       0.046367
     41 H20        -19.2320   -18.0370    43.6560 hc         1 X5M       0.046367
     42 H14        -18.6560   -21.3440    47.4220 hn         1 X5M       0.353500
@<TRIPOS>BOND
     1     1     2 1   
     2     1    23 1   
     3     1    24 1   
     4     1    25 1   
     5     2     3 1   
     6     2    26 1   
     7     2    27 1   
     8     3     4 1   
     9     3     6 1   
    10     4     5 1   
    11     4    28 1   
    12     4    29 1   
    13     5    30 1   
    14     5    31 1   
    15     5    32 1   
    16     6     7 ar  
    17     6    11 ar  
    18     7     8 ar  
    19     7    33 1   
    20     8     9 ar  
    21     8    34 1   
    22     9    10 ar  
    23     9    15 1   
    24    10    11 ar  
    25    10    35 1   
    26    11    12 1   
    27    12    13 1   
    28    12    14 1   
    29    15    16 2   
    30    15    21 1   
    31    16    17 1   
    32    17    18 1   
    33    17    42 1   
    34    18    19 2   
    35    18    20 1   
    36    20    21 1   
    37    20    36 1   
    38    20    37 1   
    39    21    22 1   
    40    21    38 1   
    41    22    39 1   
    42    22    40 1   
    43    22    41 1   
@<TRIPOS>SUBSTRUCTURE
     1 X5M         1 TEMP              0 ****  ****    0 ROOT
