@<TRIPOS>MOLECULE
X5O
   62    66     1     0     0
SMALL
No Charge or Current Charge


@<TRIPOS>ATOM
      1 C13        119.1270   186.3070   117.2050 c6         1 X5O      -0.020400
      2 C15        117.2710   184.5990   117.4040 c6         1 X5O       0.099000
      3 C17        120.6330   187.6970   115.6840 ca         1 X5O      -0.111000
      4 C20        122.9150   186.2670   116.4800 ca         1 X5O      -0.069500
      5 C21        121.6580   185.9420   117.0180 ca         1 X5O      -0.111000
      6 C22        124.3220   187.6410   114.9910 cg         1 X5O       0.325000
      7 C24        112.8700   186.0370   115.3270 cc         1 X5O       0.450000
      8 C02        113.6610   183.4470   118.6760 ca         1 X5O      -0.029300
      9 C03        112.5940   183.1560   117.8070 ca         1 X5O      -0.120000
     10 C04        112.3180   183.9510   116.6740 ca         1 X5O      -0.026300
     11 C05        113.1010   185.1150   116.4470 ca         1 X5O      -0.140500
     12 C06        114.1930   185.3800   117.3010 ca         1 X5O      -0.037000
     13 C07        114.4900   184.5590   118.4070 ca         1 X5O      -0.145600
     14 C08        115.6500   184.9250   119.3060 c          1 X5O       0.613700
     15 C11        118.0080   185.7900   119.5060 c6         1 X5O       0.099000
     16 C12        119.0240   186.6620   118.7140 c6         1 X5O      -0.089400
     17 C14        118.7430   184.8290   116.9860 c6         1 X5O      -0.089400
     18 C16        120.5060   186.6540   116.6230 ca         1 X5O      -0.053300
     19 C18        121.8900   188.0230   115.1460 ca         1 X5O      -0.069500
     20 C19        123.0370   187.3080   115.5410 ca         1 X5O      -0.023000
     21 C27        111.8760   187.3500   113.8840 cc         1 X5O       0.391800
     22 C29        110.8080   188.0440   113.0970 c3         1 X5O      -0.124400
     23 C30        111.1950   183.5210   115.7150 cy         1 X5O      -0.051400
     24 C31        110.7580   182.0080   115.7050 cy         1 X5O      -0.084400
     25 C32        110.4240   182.2240   114.1950 cy         1 X5O      -0.092400
     26 C33        111.6030   183.2490   114.2190 cy         1 X5O      -0.084400
     27 N10        116.8790   185.2580   118.6900 n          1 X5O      -0.405800
     28 N23        125.3710   187.9040   114.5500 n1         1 X5O      -0.454000
     29 N25        113.8040   186.6980   114.6590 nd         1 X5O      -0.360000
     30 N26        113.1790   187.5070   113.7390 nd         1 X5O      -0.364000
     31 N28        111.6460   186.4560   114.8880 na         1 X5O      -0.507000
     32 O09        115.5040   185.0310   120.5180 o          1 X5O      -0.600100
     33 H1         118.3730   186.9090   116.6770 hc         1 X5O       0.062700
     34 H2         116.6390   184.9910   116.5970 h1         1 X5O       0.057950
     35 H3         117.0750   183.5190   117.4700 h1         1 X5O       0.057950
     36 H4         119.7570   188.2600   115.3690 ha         1 X5O       0.121500
     37 H5         123.7950   185.7080   116.7960 ha         1 X5O       0.126500
     38 H6         121.5830   185.1380   117.7460 ha         1 X5O       0.121500
     39 H7         114.9840   182.2520   119.9300 hc         1 X5O       0.051367
     40 H8         113.6260   182.9910   120.8020 hc         1 X5O       0.051367
     41 H9         113.3620   181.5800   119.7720 hc         1 X5O       0.051367
     42 H10        111.9780   182.2860   118.0180 ha         1 X5O       0.119000
     43 H11        114.8010   186.2670   117.1270 ha         1 X5O       0.139000
     44 H12        118.5440   184.9300   119.9350 h1         1 X5O       0.057950
     45 H13        117.6260   186.3780   120.3520 h1         1 X5O       0.057950
     46 H14        120.0040   186.5770   119.2010 hc         1 X5O       0.053950
     47 H15        118.7400   187.7190   118.8040 hc         1 X5O       0.053950
     48 H16        118.8750   184.5490   115.9320 hc         1 X5O       0.053950
     49 H17        119.4010   184.1700   117.5700 hc         1 X5O       0.053950
     50 H18        121.9710   188.8310   114.4210 ha         1 X5O       0.126500
     51 H19        111.2410   188.6560   112.2980 hc         1 X5O       0.060367
     52 H20        110.1310   187.3150   112.6380 hc         1 X5O       0.060367
     53 H21        110.2160   188.7000   113.7460 hc         1 X5O       0.060367
     54 H22        110.3260   184.1850   115.8090 hc         1 X5O       0.052700
     55 H23        109.9120   181.7490   116.3500 hc         1 X5O       0.056700
     56 H24        111.5660   181.2870   115.8830 hc         1 X5O       0.056700
     57 H25        109.4380   182.6640   114.0010 hc         1 X5O       0.051700
     58 H26        110.5570   181.3540   113.5440 hc         1 X5O       0.051700
     59 H27        112.5980   182.8060   114.0910 hc         1 X5O       0.056700
     60 H28        111.5080   184.0870   113.5210 hc         1 X5O       0.056700
     61 H29        110.7500   186.1630   115.2410 hn         1 X5O       0.360000
     62 C01        113.9220   182.5180   119.8580 c3         1 X5O      -0.055800
@<TRIPOS>BOND
     1     1    16 1   
     2     1    17 1   
     3     1    18 1   
     4     1    33 1   
     5     2    17 1   
     6     2    27 1   
     7     2    34 1   
     8     2    35 1   
     9     3    18 ar  
    10     3    19 ar  
    11     3    36 1   
    12     4     5 ar  
    13     4    20 ar  
    14     4    37 1   
    15     5    18 ar  
    16     5    38 1   
    17     6    20 1   
    18     6    28 3   
    19     7    11 1   
    20     7    29 2   
    21     7    31 1   
    22     8     9 ar  
    23     8    13 ar  
    24     8    62 1   
    25     9    10 ar  
    26     9    42 1   
    27    10    11 ar  
    28    10    23 1   
    29    11    12 ar  
    30    12    13 ar  
    31    12    43 1   
    32    13    14 1   
    33    14    27 1   
    34    14    32 2   
    35    15    16 1   
    36    15    27 1   
    37    15    44 1   
    38    15    45 1   
    39    16    46 1   
    40    16    47 1   
    41    17    48 1   
    42    17    49 1   
    43    19    20 ar  
    44    19    50 1   
    45    21    22 1   
    46    21    30 2   
    47    21    31 1   
    48    22    51 1   
    49    22    52 1   
    50    22    53 1   
    51    23    24 1   
    52    23    26 1   
    53    23    54 1   
    54    24    25 1   
    55    24    55 1   
    56    24    56 1   
    57    25    26 1   
    58    25    57 1   
    59    25    58 1   
    60    26    59 1   
    61    26    60 1   
    62    29    30 1   
    63    31    61 1   
    64    39    62 1   
    65    40    62 1   
    66    41    62 1   
@<TRIPOS>SUBSTRUCTURE
     1 X5O         1 TEMP              0 ****  ****    0 ROOT
