@<TRIPOS>MOLECULE
X5O
   62    66     1     0     0
SMALL
abcg2


@<TRIPOS>ATOM
      1 C13        118.9160   185.9410   117.5090 c6         1 X5O      -0.020400
      2 C15        117.3290   184.0400   117.9730 c6         1 X5O       0.099000
      3 C17        120.0230   187.1990   115.6280 ca         1 X5O      -0.111000
      4 C20        122.5480   186.3800   116.4570 ca         1 X5O      -0.069500
      5 C21        121.4230   185.9890   117.1610 ca         1 X5O      -0.111000
      6 C22        123.5640   187.5930   114.5910 cg         1 X5O       0.325000
      7 C24        112.8760   186.2450   115.2190 cc         1 X5O       0.450000
      8 C02        113.9840   183.7170   118.4890 ca         1 X5O      -0.029300
      9 C03        112.9810   183.3270   117.6030 ca         1 X5O      -0.120000
     10 C04        112.5880   184.1000   116.5120 ca         1 X5O      -0.026300
     11 C05        113.2220   185.3420   116.3250 ca         1 X5O      -0.140500
     12 C06        114.2300   185.7420   117.2000 ca         1 X5O      -0.037000
     13 C07        114.6210   184.9410   118.2640 ca         1 X5O      -0.145600
     14 C08        115.6850   185.4580   119.1910 c          1 X5O       0.613700
     15 C11        118.0340   185.4700   119.8450 c6         1 X5O       0.099000
     16 C12        118.9140   186.3940   118.9890 c6         1 X5O      -0.089400
     17 C14        118.7200   184.4180   117.4420 c6         1 X5O      -0.089400
     18 C16        120.1440   186.3890   116.7590 ca         1 X5O      -0.053300
     19 C18        121.1380   187.6020   114.9110 ca         1 X5O      -0.069500
     20 C19        122.4090   187.1910   115.3240 ca         1 X5O      -0.023000
     21 C27        111.7390   187.5150   113.8530 cc         1 X5O       0.391800
     22 C29        110.6020   188.2170   113.2060 c3         1 X5O      -0.124400
     23 C30        111.5460   183.5910   115.5550 cy         1 X5O      -0.051400
     24 C31        111.1990   182.0810   115.5110 cy         1 X5O      -0.084400
     25 C32        111.0400   182.2060   113.9780 cy         1 X5O      -0.092400
     26 C33        111.8780   183.5040   114.0350 cy         1 X5O      -0.084400
     27 N10        116.9260   184.9560   119.0460 n          1 X5O      -0.405800
     28 N23        124.5000   187.9110   113.9960 n1         1 X5O      -0.454000
     29 N25        113.7260   186.7900   114.3780 nd         1 X5O      -0.360000
     30 N26        113.0040   187.5940   113.5110 nd         1 X5O      -0.364000
     31 N28        111.6170   186.6790   114.9200 na         1 X5O      -0.507000
     32 O09        115.3970   186.3130   120.0380 o          1 X5O      -0.600100
     33 H1         118.0530   186.3980   117.0170 hc         1 X5O       0.062700
     34 H2         116.5980   184.1040   117.1720 h1         1 X5O       0.057950
     35 H3         117.3350   183.0110   118.3450 h1         1 X5O       0.057950
     36 H4         119.0390   187.5150   115.3050 ha         1 X5O       0.121500
     37 H5         123.5330   186.0630   116.7740 ha         1 X5O       0.126500
     38 H6         121.5420   185.3620   118.0350 ha         1 X5O       0.121500
     39 H7         115.3620   182.4020   119.5000 hc         1 X5O       0.051367
     40 H8         114.3940   183.3950   120.5810 hc         1 X5O       0.051367
     41 H9         113.6600   182.0130   119.7550 hc         1 X5O       0.051367
     42 H10        112.4960   182.3740   117.7690 ha         1 X5O       0.119000
     43 H11        114.7150   186.6970   117.0430 ha         1 X5O       0.139000
     44 H12        118.6110   184.6140   120.2010 h1         1 X5O       0.057950
     45 H13        117.6310   185.9910   120.7070 h1         1 X5O       0.057950
     46 H14        119.9270   186.3830   119.3950 hc         1 X5O       0.053950
     47 H15        118.5530   187.4220   119.0470 hc         1 X5O       0.053950
     48 H16        118.8110   184.0640   116.4140 hc         1 X5O       0.053950
     49 H17        119.5020   183.9240   118.0220 hc         1 X5O       0.053950
     50 H18        121.0320   188.2300   114.0360 ha         1 X5O       0.126500
     51 H19        110.9700   188.7980   112.3620 hc         1 X5O       0.060367
     52 H20        109.8580   187.5030   112.8480 hc         1 X5O       0.060367
     53 H21        110.1090   188.8900   113.9100 hc         1 X5O       0.060367
     54 H22        110.6190   184.1570   115.6820 hc         1 X5O       0.052700
     55 H23        110.3420   181.7430   116.0940 hc         1 X5O       0.056700
     56 H24        112.0650   181.4680   115.7630 hc         1 X5O       0.056700
     57 H25        110.0070   182.4090   113.6930 hc         1 X5O       0.051700
     58 H26        111.4220   181.3880   113.3680 hc         1 X5O       0.051700
     59 H27        112.9400   183.3050   113.8850 hc         1 X5O       0.056700
     60 H28        111.5760   184.3360   113.4020 hc         1 X5O       0.056700
     61 H29        110.7650   186.4530   115.4100 hn         1 X5O       0.360000
     62 C01        114.3680   182.8330   119.6450 c3         1 X5O      -0.055800
@<TRIPOS>BOND
     1     1    16 1   
     2     1    17 1   
     3     1    18 1   
     4     1    33 1   
     5     2    17 1   
     6     2    27 1   
     7     2    34 1   
     8     2    35 1   
     9     3    18 ar  
    10     3    19 ar  
    11     3    36 1   
    12     4     5 ar  
    13     4    20 ar  
    14     4    37 1   
    15     5    18 ar  
    16     5    38 1   
    17     6    20 1   
    18     6    28 3   
    19     7    11 1   
    20     7    29 2   
    21     7    31 1   
    22     8     9 ar  
    23     8    13 ar  
    24     8    62 1   
    25     9    10 ar  
    26     9    42 1   
    27    10    11 ar  
    28    10    23 1   
    29    11    12 ar  
    30    12    13 ar  
    31    12    43 1   
    32    13    14 1   
    33    14    27 1   
    34    14    32 2   
    35    15    16 1   
    36    15    27 1   
    37    15    44 1   
    38    15    45 1   
    39    16    46 1   
    40    16    47 1   
    41    17    48 1   
    42    17    49 1   
    43    19    20 ar  
    44    19    50 1   
    45    21    22 1   
    46    21    30 2   
    47    21    31 1   
    48    22    51 1   
    49    22    52 1   
    50    22    53 1   
    51    23    24 1   
    52    23    26 1   
    53    23    54 1   
    54    24    25 1   
    55    24    55 1   
    56    24    56 1   
    57    25    26 1   
    58    25    57 1   
    59    25    58 1   
    60    26    59 1   
    61    26    60 1   
    62    29    30 1   
    63    31    61 1   
    64    39    62 1   
    65    40    62 1   
    66    41    62 1   
@<TRIPOS>SUBSTRUCTURE
     1 X5O         1 TEMP              0 ****  ****    0 ROOT
