@<TRIPOS>MOLECULE
X5P
   22    21     1     0     0
SMALL
No Charge or Current Charge


@<TRIPOS>ATOM
      1 N            0.2540    -1.5260    -1.9360 ns         1 X5P      -0.481900
      2 CA          -0.6620    -2.1530    -2.9210 c3         1 X5P      -0.036300
      3 C           -1.0080    -3.6190    -2.5050 c          1 X5P       0.714000
      4 O           -2.1780    -3.9730    -2.5570 o          1 X5P      -0.740000
      5 CB          -0.0800    -2.0940    -4.3510 c3         1 X5P      -0.074100
      6 C1           3.7930     1.0980    -0.1840 c          1 X5P       0.716000
      7 O1           4.5400     0.2230     0.2240 o          1 X5P      -0.756000
      8 C2           2.7880     0.7380    -1.2920 c3         1 X5P      -0.196400
      9 C3           1.4630     0.2040    -0.6760 c3         1 X5P      -0.132400
     10 C4           0.4340    -0.1730    -1.7530 c          1 X5P       0.583100
     11 O3          -0.2070     0.6650    -2.3750 o          1 X5P      -0.683100
     12 OXT         -0.1200    -4.3210    -2.0380 o          1 X5P      -0.740000
     13 O4           3.7620     2.2280     0.2790 o          1 X5P      -0.756000
     14 H            0.8190    -2.1420    -1.3610 hn         1 X5P       0.335500
     15 HA          -1.6020    -1.5860    -2.9110 h1         1 X5P       0.042700
     16 HB2          0.1030    -1.0580    -4.6580 hc         1 X5P       0.017700
     17 HB1          0.8680    -2.6430    -4.4070 hc         1 X5P       0.017700
     18 HB3         -0.7790    -2.5430    -5.0660 hc         1 X5P       0.017700
     19 H21          3.1790    -0.0790    -1.9120 hc         1 X5P       0.026200
     20 H22          2.5150     1.6330    -1.8650 hc         1 X5P       0.026200
     21 H31          1.0360     0.9890    -0.0410 hc         1 X5P       0.051200
     22 H32          1.7010    -0.6740    -0.0640 hc         1 X5P       0.051200
@<TRIPOS>BOND
     1     1     2 1   
     2     1    10 1   
     3     1    14 1   
     4     2     3 1   
     5     2     5 1   
     6     2    15 1   
     7     3     4 1   
     8     3    12 1   
     9     5    16 1   
    10     5    17 1   
    11     5    18 1   
    12     6     7 1   
    13     6     8 1   
    14     6    13 1   
    15     8     9 1   
    16     8    19 1   
    17     8    20 1   
    18     9    10 1   
    19     9    21 1   
    20     9    22 1   
    21    10    11 2   
@<TRIPOS>SUBSTRUCTURE
     1 X5P         1 TEMP              0 ****  ****    0 ROOT
