@<TRIPOS>MOLECULE
X5P
   22    21     1     0     0
SMALL
abcg2


@<TRIPOS>ATOM
      1 N            0.3600    -1.6570    -2.0220 ns         1 X5P      -0.481900
      2 CA          -0.6730    -2.1430    -2.9080 c3         1 X5P      -0.036300
      3 C           -1.0920    -3.5740    -2.4790 c          1 X5P       0.714000
      4 O           -2.0420    -4.0630    -3.1130 o          1 X5P      -0.740000
      5 CB          -0.2200    -2.1300    -4.3680 c3         1 X5P      -0.074100
      6 C1           3.7290     1.3520    -0.0870 c          1 X5P       0.716000
      7 O1           3.8000     0.6360     0.9320 o          1 X5P      -0.756000
      8 C2           2.6870     0.9720    -1.1590 c3         1 X5P      -0.196400
      9 C3           1.6900    -0.1000    -0.7440 c3         1 X5P      -0.132400
     10 C4           0.6400    -0.3660    -1.8040 c          1 X5P       0.583100
     11 O3           0.0770     0.5490    -2.4010 o          1 X5P      -0.683100
     12 OXT         -0.4410    -4.1060    -1.5570 o          1 X5P      -0.740000
     13 O4           4.4280     2.3520    -0.3470 o          1 X5P      -0.756000
     14 H            0.7860    -2.3700    -1.4480 hn         1 X5P       0.335500
     15 HA          -1.5510    -1.4960    -2.8150 h1         1 X5P       0.042700
     16 HB2          0.0770    -1.1270    -4.6750 hc         1 X5P       0.017700
     17 HB1          0.6320    -2.7950    -4.5180 hc         1 X5P       0.017700
     18 HB3         -1.0250    -2.4560    -5.0240 hc         1 X5P       0.017700
     19 H21          3.2280     0.6430    -2.0540 hc         1 X5P       0.026200
     20 H22          2.1540     1.8770    -1.4620 hc         1 X5P       0.026200
     21 H31          1.1640     0.2190     0.1610 hc         1 X5P       0.051200
     22 H32          2.2120    -1.0210    -0.4790 hc         1 X5P       0.051200
@<TRIPOS>BOND
     1     1     2 1   
     2     1    10 1   
     3     1    14 1   
     4     2     3 1   
     5     2     5 1   
     6     2    15 1   
     7     3     4 1   
     8     3    12 1   
     9     5    16 1   
    10     5    17 1   
    11     5    18 1   
    12     6     7 1   
    13     6     8 1   
    14     6    13 1   
    15     8     9 1   
    16     8    19 1   
    17     8    20 1   
    18     9    10 1   
    19     9    21 1   
    20     9    22 1   
    21    10    11 2   
@<TRIPOS>SUBSTRUCTURE
     1 X5P         1 TEMP              0 ****  ****    0 ROOT
