@<TRIPOS>MOLECULE
X5S
   88    92     1     0     0
SMALL
No Charge or Current Charge


@<TRIPOS>ATOM
      1 O21         -7.9550     3.1820     2.5200 oh         1 X5S      -0.699000
      2 C21         -8.7060     2.2740     1.6760 c6         1 X5S       0.159300
      3 C31         -9.6140     1.3200     2.5250 c6         1 X5S       0.182300
      4 O31        -10.6070     2.0390     3.2790 oh         1 X5S      -0.641000
      5 C41        -10.3330     0.2840     1.6080 c6         1 X5S       0.094300
      6 O41        -11.1110    -0.6350     2.4060 oh         1 X5S      -0.721000
      7 C51         -9.2790    -0.4610     0.7440 c6         1 X5S       0.113600
      8 O51         -8.5090     0.4920    -0.0170 os         1 X5S      -0.414000
      9 C11         -7.7470     1.4120     0.7900 c6         1 X5S       0.248300
     10 S42         -6.7070     2.4500    -0.3400 ss         1 X5S      -0.359000
     11 C42         -5.7520     1.1190    -1.2290 c6         1 X5S       0.027300
     12 C32         -5.0380     1.6470    -2.5100 c6         1 X5S       0.199300
     13 O32         -5.9770     2.1670    -3.4630 oh         1 X5S      -0.637000
     14 C22         -4.2010     0.5230    -3.1880 c6         1 X5S       0.111300
     15 O22         -3.5090     1.0440    -4.3490 oh         1 X5S      -0.724000
     16 C52         -4.7070     0.4390    -0.3040 c6         1 X5S       0.143600
     17 O52         -3.9780    -0.5810    -1.0200 os         1 X5S      -0.414000
     18 C12         -3.2220    -0.0890    -2.1420 c6         1 X5S       0.257300
     19 S43         -2.2320    -1.4890    -2.8400 ss         1 X5S      -0.360000
     20 C43         -1.2680    -2.0000    -1.3290 c6         1 X5S       0.029300
     21 C33         -0.5890    -3.3930    -1.4930 c6         1 X5S       0.199300
     22 O33         -1.5570    -4.4290    -1.7170 oh         1 X5S      -0.637000
     23 C23          0.2570    -3.7550    -0.2370 c6         1 X5S       0.111300
     24 O23          0.9160    -5.0310    -0.4290 oh         1 X5S      -0.723000
     25 C53         -0.1920    -0.9480    -0.9450 c6         1 X5S       0.142600
     26 O53          0.5430    -1.3730     0.2230 os         1 X5S      -0.413000
     27 C13          1.2680    -2.6040     0.0480 c6         1 X5S       0.257300
     28 S13          2.2730    -2.9130     1.5720 ss         1 X5S      -0.358000
     29 C44          3.2790    -1.3460     1.6300 c6         1 X5S       0.028300
     30 C34          3.9830    -1.1360     3.0040 c6         1 X5S       0.199300
     31 O34          3.0330    -1.0390     4.0760 oh         1 X5S      -0.636000
     32 C24          4.8630     0.1490     2.9920 c6         1 X5S       0.112300
     33 O24          5.5450     0.3010     4.2610 oh         1 X5S      -0.724000
     34 C54          4.3400    -1.2950     0.4980 c6         1 X5S       0.143600
     35 O54          5.1090    -0.0760     0.5720 os         1 X5S      -0.413000
     36 C14          5.8550     0.0780     1.7930 c6         1 X5S       0.254300
     37 S45          6.8990     1.6010     1.6530 ss         1 X5S      -0.357000
     38 C45          7.8560     1.2100     0.1010 c6         1 X5S       0.025300
     39 C55          8.8670     0.0470     0.3170 c6         1 X5S       0.166600
     40 O55          9.6120    -0.2250    -0.8930 os         1 X5S      -0.474000
     41 C15         10.3870     0.8830    -1.3490 c6         1 X5S       0.363300
     42 O15         11.0740     0.4050    -2.4860 oh         1 X5S      -0.703000
     43 C25          9.4390     2.0640    -1.7240 c6         1 X5S       0.106300
     44 O25         10.1630     3.2110    -2.2370 oh         1 X5S      -0.724000
     45 C35          8.6090     2.4520    -0.4680 c6         1 X5S       0.197300
     46 O35          7.7060     3.5120    -0.8210 oh         1 X5S      -0.698000
     47 HO21        -7.4370     3.7640     1.9160 ho         1 X5S       0.516000
     48 H21         -9.3580     2.8470     1.0000 h1         1 X5S       0.063700
     49 H31         -8.9620     0.7620     3.2150 h1         1 X5S       0.052700
     50 HO31       -11.2670     1.3520     3.5260 ho         1 X5S       0.458000
     51 H41        -10.9950     0.8350     0.9230 h1         1 X5S       0.057700
     52 HO41       -11.6390    -1.1940     1.7860 ho         1 X5S       0.513000
     53 H51         -8.6030    -1.0520     1.3800 h1         1 X5S       0.058700
     54 H51A        -9.7800    -1.1460     0.0450 h1         1 X5S       0.058700
     55 H11         -7.0580     0.8510     1.4380 h2         1 X5S       0.060700
     56 H42         -6.4760     0.3550    -1.5430 h1         1 X5S       0.099700
     57 H32         -4.3460     2.4470    -2.2050 h1         1 X5S       0.048700
     58 HO32        -5.4720     2.2000    -4.3070 ho         1 X5S       0.462000
     59 H22         -4.8920    -0.2770    -3.4970 h1         1 X5S       0.068700
     60 HO22        -2.9500     0.3110    -4.7020 ho         1 X5S       0.525000
     61 H52         -3.9990     1.1850     0.0870 h1         1 X5S       0.064200
     62 H52A        -5.2100    -0.0310     0.5520 h1         1 X5S       0.064200
     63 H12         -2.5100     0.6790    -1.8050 h2         1 X5S       0.060700
     64 H43         -1.9830    -2.0740    -0.4980 h1         1 X5S       0.100700
     65 H33          0.0920    -3.3360    -2.3560 h1         1 X5S       0.048700
     66 HO33        -1.0680    -5.2620    -1.5240 ho         1 X5S       0.463000
     67 H23         -0.4230    -3.8150     0.6270 h1         1 X5S       0.068700
     68 HO23         1.4820    -5.1830     0.3660 ho         1 X5S       0.525000
     69 H53          0.5080    -0.7950    -1.7790 h1         1 X5S       0.063200
     70 H53A        -0.6690     0.0160    -0.7230 h1         1 X5S       0.063200
     71 H13          1.9710    -2.5090    -0.7930 h2         1 X5S       0.060700
     72 H44          2.5830    -0.5080     1.4810 h1         1 X5S       0.099700
     73 H34          4.6450    -1.9980     3.1790 h1         1 X5S       0.047700
     74 HO34         3.5430    -0.6370     4.8160 ho         1 X5S       0.463000
     75 H24          4.2030     1.0130     2.8200 h1         1 X5S       0.069700
     76 HO24         6.1340     1.0890     4.1770 ho         1 X5S       0.525000
     77 H54          5.0190    -2.1580     0.5720 h1         1 X5S       0.062700
     78 H54A         3.8480    -1.3360    -0.4830 h1         1 X5S       0.062700
     79 H14          6.5370    -0.7750     1.9240 h2         1 X5S       0.059700
     80 H45          7.1260     0.8880    -0.6550 h1         1 X5S       0.101700
     81 H55          9.5690     0.2990     1.1260 h1         1 X5S       0.059700
     82 H55A         8.3330    -0.8680     0.6080 h1         1 X5S       0.059700
     83 H15         11.1030     1.1880    -0.5700 h2         1 X5S       0.030700
     84 HO15        10.9640    -0.5700    -2.4140 ho         1 X5S       0.524000
     85 H25          8.7420     1.6920    -2.4910 h1         1 X5S       0.070700
     86 HO25        10.8400     2.8430    -2.8570 ho         1 X5S       0.526000
     87 H35          9.3080     2.8070     0.3050 h1         1 X5S       0.047700
     88 HO35         8.2340     4.0780    -1.4350 ho         1 X5S       0.524000
@<TRIPOS>BOND
     1     1     2 1   
     2     1    47 1   
     3     2     3 1   
     4     2     9 1   
     5     2    48 1   
     6     3     4 1   
     7     3     5 1   
     8     3    49 1   
     9     4    50 1   
    10     5     6 1   
    11     5     7 1   
    12     5    51 1   
    13     6    52 1   
    14     7     8 1   
    15     7    53 1   
    16     7    54 1   
    17     8     9 1   
    18     9    10 1   
    19     9    55 1   
    20    10    11 1   
    21    11    12 1   
    22    11    16 1   
    23    11    56 1   
    24    12    13 1   
    25    12    14 1   
    26    12    57 1   
    27    13    58 1   
    28    14    15 1   
    29    14    18 1   
    30    14    59 1   
    31    15    60 1   
    32    16    17 1   
    33    16    61 1   
    34    16    62 1   
    35    17    18 1   
    36    18    19 1   
    37    18    63 1   
    38    19    20 1   
    39    20    21 1   
    40    20    25 1   
    41    20    64 1   
    42    21    22 1   
    43    21    23 1   
    44    21    65 1   
    45    22    66 1   
    46    23    24 1   
    47    23    27 1   
    48    23    67 1   
    49    24    68 1   
    50    25    26 1   
    51    25    69 1   
    52    25    70 1   
    53    26    27 1   
    54    27    28 1   
    55    27    71 1   
    56    28    29 1   
    57    29    30 1   
    58    29    34 1   
    59    29    72 1   
    60    30    31 1   
    61    30    32 1   
    62    30    73 1   
    63    31    74 1   
    64    32    33 1   
    65    32    36 1   
    66    32    75 1   
    67    33    76 1   
    68    34    35 1   
    69    34    77 1   
    70    34    78 1   
    71    35    36 1   
    72    36    37 1   
    73    36    79 1   
    74    37    38 1   
    75    38    39 1   
    76    38    45 1   
    77    38    80 1   
    78    39    40 1   
    79    39    81 1   
    80    39    82 1   
    81    40    41 1   
    82    41    42 1   
    83    41    43 1   
    84    41    83 1   
    85    42    84 1   
    86    43    44 1   
    87    43    45 1   
    88    43    85 1   
    89    44    86 1   
    90    45    46 1   
    91    45    87 1   
    92    46    88 1   
@<TRIPOS>SUBSTRUCTURE
     1 X5S         1 TEMP              0 ****  ****    0 ROOT
