@<TRIPOS>MOLECULE
X5Y
   77    79     1     0     0
SMALL
bcc


@<TRIPOS>ATOM
      1 C10         15.0850   -16.2490     9.4630 c3         1 X5Y      -0.023300
      2 C02         18.2480   -18.1450     5.4970 c3         1 X5Y       0.200800
      3 C03         19.4870   -17.5100     4.8760 c3         1 X5Y      -0.109433
      4 C04         18.4480   -19.6500     5.6200 c3         1 X5Y      -0.109433
      5 C06         17.2050   -17.7450     7.6760 c          1 X5Y       0.769100
      6 C09         16.3900   -16.9530     9.8460 c3         1 X5Y       0.137700
      7 C12         13.0930   -18.0640    10.3340 c3         1 X5Y      -0.054600
      8 C13         11.6590   -18.1210    10.8710 c3         1 X5Y      -0.008100
      9 C01         17.0170   -17.8020     4.6680 c3         1 X5Y      -0.109433
     10 C14         11.0340   -19.4700    10.6400 ca         1 X5Y      -0.089300
     11 C15         10.6050   -19.8370     9.3650 ca         1 X5Y      -0.116500
     12 C16         10.0510   -21.0870     9.1340 ca         1 X5Y      -0.129500
     13 C17          9.9170   -21.9940    10.1790 ca         1 X5Y      -0.126000
     14 C18         10.3400   -21.6390    11.4530 ca         1 X5Y      -0.129500
     15 C19         10.8960   -20.3860    11.6790 ca         1 X5Y      -0.116500
     16 C20         13.9500   -19.1330    10.9960 c          1 X5Y       0.667100
     17 C23         15.5090   -20.9740    10.5790 c3         1 X5Y       0.099000
     18 C24         15.8310   -21.9330     9.4430 c3         1 X5Y      -0.092400
     19 C25         17.0530   -22.7970     9.7300 c3         1 X5Y      -0.022100
     20 C26         18.3490   -22.0410     9.8830 ca         1 X5Y      -0.195600
     21 C27         19.3710   -22.5490    10.6810 ca         1 X5Y       0.396200
     22 C29         20.7890   -20.8420    10.1850 ca         1 X5Y       0.396200
     23 C30         19.8410   -20.2310     9.3800 ca         1 X5Y      -0.240300
     24 C31         18.6100   -20.8450     9.2250 ca         1 X5Y      -0.094000
     25 C32         17.0390   -16.3180    11.0740 c3         1 X5Y      -0.047100
     26 C33         18.1820   -17.1320    11.6130 ca         1 X5Y      -0.084300
     27 C34         17.9280   -18.3140    12.3080 ca         1 X5Y      -0.124500
     28 C35         18.9670   -19.0900    12.7950 ca         1 X5Y      -0.127500
     29 C36         20.2840   -18.6900    12.6050 ca         1 X5Y      -0.124000
     30 C37         20.5490   -17.5120    11.9220 ca         1 X5Y      -0.127500
     31 C38         19.5040   -16.7420    11.4270 ca         1 X5Y      -0.124500
     32 N08         17.3210   -16.9250     8.7400 ns         1 X5Y      -0.568900
     33 N22         14.5520   -19.9770    10.1480 ns         1 X5Y      -0.560900
     34 N28         20.5620   -21.9810    10.8270 nb         1 X5Y      -0.667000
     35 O05         18.1840   -17.5130     6.8040 os         1 X5Y      -0.454900
     36 O07         16.3290   -18.5830     7.5560 o          1 X5Y      -0.630000
     37 O21         14.0580   -19.2060    12.2120 o          1 X5Y      -0.598100
     38 S11         13.7530   -16.4020    10.6840 ss         1 X5Y      -0.298200
     39 H1          15.2600   -15.1760     9.3530 h1         1 X5Y       0.078700
     40 H2          14.7160   -16.6150     8.5040 h1         1 X5Y       0.078700
     41 H3          19.3820   -16.4270     4.7980 hc         1 X5Y       0.050256
     42 H4          20.3800   -17.7300     5.4620 hc         1 X5Y       0.050256
     43 H5          19.6400   -17.9030     3.8710 hc         1 X5Y       0.050256
     44 H6          17.5680   -20.1590     6.0050 hc         1 X5Y       0.050256
     45 H7          18.6640   -20.0630     4.6330 hc         1 X5Y       0.050256
     46 H8          19.2980   -19.8820     6.2640 hc         1 X5Y       0.050256
     47 H9          16.1810   -17.9990    10.0740 h1         1 X5Y       0.076700
     48 H10         13.0750   -18.1900     9.2480 h1         1 X5Y       0.075700
     49 H11         11.0780   -17.3450    10.3700 hc         1 X5Y       0.069200
     50 H12         11.6600   -17.8850    11.9370 hc         1 X5Y       0.069200
     51 H13         16.8530   -16.7240     4.6390 hc         1 X5Y       0.050256
     52 H14         17.1730   -18.1390     3.6420 hc         1 X5Y       0.050256
     53 H15         16.1150   -18.2830     5.0410 hc         1 X5Y       0.050256
     54 H16         10.6990   -19.1330     8.5460 ha         1 X5Y       0.134000
     55 H17          9.7200   -21.3550     8.1390 ha         1 X5Y       0.130000
     56 H18          9.4810   -22.9680    10.0010 ha         1 X5Y       0.129000
     57 H19         10.2350   -22.3360    12.2740 ha         1 X5Y       0.130000
     58 H20         11.2240   -20.1160    12.6750 ha         1 X5Y       0.134000
     59 H21         16.4230   -20.4860    10.9360 h1         1 X5Y       0.052700
     60 H22         15.0960   -21.5270    11.4250 h1         1 X5Y       0.052700
     61 H23         14.9740   -22.5850     9.2610 hc         1 X5Y       0.052700
     62 H24         15.9810   -21.3730     8.5150 hc         1 X5Y       0.052700
     63 H25         16.8820   -23.3970    10.6290 hc         1 X5Y       0.051200
     64 H26         17.1640   -23.5170     8.9140 hc         1 X5Y       0.051200
     65 H27         19.2110   -23.4740    11.2270 h4         1 X5Y       0.014100
     66 H28         21.7650   -20.3900    10.3230 h4         1 X5Y       0.016100
     67 H29         20.0590   -19.2880     8.8970 ha         1 X5Y       0.143000
     68 H30         17.8570   -20.3830     8.6020 ha         1 X5Y       0.147000
     69 H31         17.3710   -15.3050    10.8250 hc         1 X5Y       0.066200
     70 H32         16.2690   -16.2130    11.8410 hc         1 X5Y       0.066200
     71 H33         16.9020   -18.6230    12.4790 ha         1 X5Y       0.133500
     72 H34         18.7510   -20.0080    13.3270 ha         1 X5Y       0.131500
     73 H35         21.0970   -19.2930    12.9880 ha         1 X5Y       0.135000
     74 H36         21.5720   -17.1910    11.7710 ha         1 X5Y       0.131500
     75 H37         19.7240   -15.8180    10.9050 ha         1 X5Y       0.133500
     76 H38         18.0440   -16.2230     8.7310 hn         1 X5Y       0.329500
     77 H39         14.5290   -19.7600     9.1640 hn         1 X5Y       0.325500
@<TRIPOS>BOND
     1     1     6 1   
     2     1    38 1   
     3     1    39 1   
     4     1    40 1   
     5     2     3 1   
     6     2     4 1   
     7     2     9 1   
     8     2    35 1   
     9     3    41 1   
    10     3    42 1   
    11     3    43 1   
    12     4    44 1   
    13     4    45 1   
    14     4    46 1   
    15     5    32 1   
    16     5    35 1   
    17     5    36 2   
    18     6    25 1   
    19     6    32 1   
    20     6    47 1   
    21     7     8 1   
    22     7    16 1   
    23     7    38 1   
    24     7    48 1   
    25     8    10 1   
    26     8    49 1   
    27     8    50 1   
    28     9    51 1   
    29     9    52 1   
    30     9    53 1   
    31    10    11 ar  
    32    10    15 ar  
    33    11    12 ar  
    34    11    54 1   
    35    12    13 ar  
    36    12    55 1   
    37    13    14 ar  
    38    13    56 1   
    39    14    15 ar  
    40    14    57 1   
    41    15    58 1   
    42    16    33 1   
    43    16    37 2   
    44    17    18 1   
    45    17    33 1   
    46    17    59 1   
    47    17    60 1   
    48    18    19 1   
    49    18    61 1   
    50    18    62 1   
    51    19    20 1   
    52    19    63 1   
    53    19    64 1   
    54    20    21 ar  
    55    20    24 ar  
    56    21    34 ar  
    57    21    65 1   
    58    22    23 ar  
    59    22    34 ar  
    60    22    66 1   
    61    23    24 ar  
    62    23    67 1   
    63    24    68 1   
    64    25    26 1   
    65    25    69 1   
    66    25    70 1   
    67    26    27 ar  
    68    26    31 ar  
    69    27    28 ar  
    70    27    71 1   
    71    28    29 ar  
    72    28    72 1   
    73    29    30 ar  
    74    29    73 1   
    75    30    31 ar  
    76    30    74 1   
    77    31    75 1   
    78    32    76 1   
    79    33    77 1   
@<TRIPOS>SUBSTRUCTURE
     1 X5Y         1 TEMP              0 ****  ****    0 ROOT
