@<TRIPOS>MOLECULE
X5Y
   77    79     1     0     0
SMALL
No Charge or Current Charge


@<TRIPOS>ATOM
      1 C10         15.0660   -15.9440     9.8110 c3         1 X5Y       0.024600
      2 C02         17.6310   -18.4990     5.6840 c3         1 X5Y       0.224000
      3 C03         18.8780   -18.0770     4.8760 c3         1 X5Y      -0.109433
      4 C04         17.6880   -20.0180     5.9840 c3         1 X5Y      -0.109433
      5 C06         16.7910   -17.8180     7.9020 c          1 X5Y       0.653100
      6 C09         16.3680   -16.7290    10.1120 c3         1 X5Y       0.137700
      7 C12         13.1790   -17.9820    10.5300 c3         1 X5Y      -0.006700
      8 C13         11.6650   -18.1460    10.7770 c3         1 X5Y      -0.008100
      9 C01         16.3440   -18.0800     4.9280 c3         1 X5Y      -0.109433
     10 C14         11.1350   -19.4510    10.1960 ca         1 X5Y      -0.089300
     11 C15         10.9340   -19.5770     8.8070 ca         1 X5Y      -0.098500
     12 C16         10.4660   -20.7870     8.2660 ca         1 X5Y      -0.111500
     13 C17         10.1980   -21.8780     9.1090 ca         1 X5Y      -0.108000
     14 C18         10.3980   -21.7590    10.4940 ca         1 X5Y      -0.111500
     15 C19         10.8650   -20.5490    11.0360 ca         1 X5Y      -0.098500
     16 C20         13.9920   -19.1150    11.2060 c          1 X5Y       0.600100
     17 C23         15.7010   -20.9020    10.7660 c3         1 X5Y       0.099000
     18 C24         16.0160   -21.8740     9.6120 c3         1 X5Y      -0.092400
     19 C25         17.2680   -22.7500     9.8590 c3         1 X5Y      -0.022100
     20 C26         18.6080   -22.0080     9.9510 ca         1 X5Y      -0.130300
     21 C27         19.7230   -22.6760    10.5030 ca         1 X5Y       0.330900
     22 C29         21.1170   -20.8610    10.1550 ca         1 X5Y       0.330900
     23 C30         20.0730   -20.1150     9.5860 ca         1 X5Y      -0.157000
     24 C31         18.7970   -20.6900     9.4810 ca         1 X5Y      -0.076000
     25 C32         17.2220   -16.0750    11.2210 c3         1 X5Y      -0.047100
     26 C33         18.3890   -16.9520    11.6630 ca         1 X5Y      -0.084300
     27 C34         18.1440   -18.1420    12.3770 ca         1 X5Y      -0.106500
     28 C35         19.2140   -18.9470    12.8050 ca         1 X5Y      -0.109500
     29 C36         20.5360   -18.5640    12.5280 ca         1 X5Y      -0.106000
     30 C37         20.7880   -17.3810    11.8120 ca         1 X5Y      -0.109500
     31 C38         19.7180   -16.5770    11.3810 ca         1 X5Y      -0.106500
     32 N08         17.1460   -16.9510     8.8940 ns         1 X5Y      -0.501900
     33 N22         14.7590   -19.8690    10.3460 ns         1 X5Y      -0.493900
     34 N28         20.9550   -22.1240    10.6080 nb         1 X5Y      -0.667000
     35 O05         17.7350   -17.7480     6.9170 os         1 X5Y      -0.478100
     36 O07         15.7930   -18.5200     7.9250 o          1 X5Y      -0.581000
     37 O21         13.9780   -19.3230    12.4120 o          1 X5Y      -0.598100
     38 S11         13.7380   -16.2800    11.0650 ss         1 X5Y      -0.394000
     39 H1          15.2830   -14.8680     9.7860 h1         1 X5Y       0.078700
     40 H2          14.6780   -16.2240     8.8230 h1         1 X5Y       0.078700
     41 H3          18.8730   -16.9970     4.6870 hc         1 X5Y       0.050256
     42 H4          19.7970   -18.3240     5.4200 hc         1 X5Y       0.050256
     43 H5          18.9070   -18.5910     3.9080 hc         1 X5Y       0.050256
     44 H6          16.7810   -20.3720     6.4850 hc         1 X5Y       0.050256
     45 H7          17.7840   -20.5860     5.0510 hc         1 X5Y       0.050256
     46 H8          18.5520   -20.2590     6.6130 hc         1 X5Y       0.050256
     47 H9          16.0860   -17.7190    10.4780 h1         1 X5Y       0.076700
     48 H10         13.3450   -18.0560     9.4480 h1         1 X5Y       0.075700
     49 H11         11.1360   -17.3000    10.3210 hc         1 X5Y       0.069200
     50 H12         11.4620   -18.0860    11.8540 hc         1 X5Y       0.069200
     51 H13         16.2550   -16.9880     4.8860 hc         1 X5Y       0.050256
     52 H14         16.3660   -18.4570     3.8990 hc         1 X5Y       0.050256
     53 H15         15.4420   -18.4830     5.4010 hc         1 X5Y       0.050256
     54 H16         11.1420   -18.7390     8.1460 ha         1 X5Y       0.116000
     55 H17         10.3130   -20.8790     7.1920 ha         1 X5Y       0.112000
     56 H18          9.8370   -22.8150     8.6890 ha         1 X5Y       0.111000
     57 H19         10.1920   -22.6040    11.1480 ha         1 X5Y       0.112000
     58 H20         11.0230   -20.4690    12.1100 ha         1 X5Y       0.116000
     59 H21         16.6200   -20.4050    11.1020 h1         1 X5Y       0.052700
     60 H22         15.2870   -21.4630    11.6150 h1         1 X5Y       0.052700
     61 H23         15.1470   -22.5270     9.4620 hc         1 X5Y       0.052700
     62 H24         16.1410   -21.3220     8.6740 hc         1 X5Y       0.052700
     63 H25         17.1050   -23.3290    10.7770 hc         1 X5Y       0.051200
     64 H26         17.3300   -23.4870     9.0500 hc         1 X5Y       0.051200
     65 H27         19.6260   -23.6970    10.8720 h4         1 X5Y       0.014100
     66 H28         22.1150   -20.4340    10.2510 h4         1 X5Y       0.016100
     67 H29         20.2540   -19.1020     9.2390 ha         1 X5Y       0.125000
     68 H30         17.9900   -20.1130     9.0420 ha         1 X5Y       0.129000
     69 H31         17.5790   -15.0980    10.8730 hc         1 X5Y       0.066200
     70 H32         16.5820   -15.8710    12.0870 hc         1 X5Y       0.066200
     71 H33         17.1240   -18.4410    12.6080 ha         1 X5Y       0.115500
     72 H34         19.0180   -19.8650    13.3550 ha         1 X5Y       0.113500
     73 H35         21.3650   -19.1850    12.8620 ha         1 X5Y       0.117000
     74 H36         21.8120   -17.0850    11.5940 ha         1 X5Y       0.113500
     75 H37         19.9240   -15.6610    10.8320 ha         1 X5Y       0.115500
     76 H38         18.0090   -16.4440     8.7530 hn         1 X5Y       0.329500
     77 H39         14.7720   -19.5820     9.3710 hn         1 X5Y       0.325500
@<TRIPOS>BOND
     1     1     6 1   
     2     1    38 1   
     3     1    39 1   
     4     1    40 1   
     5     2     3 1   
     6     2     4 1   
     7     2     9 1   
     8     2    35 1   
     9     3    41 1   
    10     3    42 1   
    11     3    43 1   
    12     4    44 1   
    13     4    45 1   
    14     4    46 1   
    15     5    32 1   
    16     5    35 1   
    17     5    36 2   
    18     6    25 1   
    19     6    32 1   
    20     6    47 1   
    21     7     8 1   
    22     7    16 1   
    23     7    38 1   
    24     7    48 1   
    25     8    10 1   
    26     8    49 1   
    27     8    50 1   
    28     9    51 1   
    29     9    52 1   
    30     9    53 1   
    31    10    11 ar  
    32    10    15 ar  
    33    11    12 ar  
    34    11    54 1   
    35    12    13 ar  
    36    12    55 1   
    37    13    14 ar  
    38    13    56 1   
    39    14    15 ar  
    40    14    57 1   
    41    15    58 1   
    42    16    33 1   
    43    16    37 2   
    44    17    18 1   
    45    17    33 1   
    46    17    59 1   
    47    17    60 1   
    48    18    19 1   
    49    18    61 1   
    50    18    62 1   
    51    19    20 1   
    52    19    63 1   
    53    19    64 1   
    54    20    21 ar  
    55    20    24 ar  
    56    21    34 ar  
    57    21    65 1   
    58    22    23 ar  
    59    22    34 ar  
    60    22    66 1   
    61    23    24 ar  
    62    23    67 1   
    63    24    68 1   
    64    25    26 1   
    65    25    69 1   
    66    25    70 1   
    67    26    27 ar  
    68    26    31 ar  
    69    27    28 ar  
    70    27    71 1   
    71    28    29 ar  
    72    28    72 1   
    73    29    30 ar  
    74    29    73 1   
    75    30    31 ar  
    76    30    74 1   
    77    31    75 1   
    78    32    76 1   
    79    33    77 1   
@<TRIPOS>SUBSTRUCTURE
     1 X5Y         1 TEMP              0 ****  ****    0 ROOT
