@<TRIPOS>MOLECULE
X60
   24    23     1     0     0
SMALL
No Charge or Current Charge


@<TRIPOS>ATOM
      1 N            1.2410    -1.7940    -1.1870 n8         1 X60      -0.984200
      2 CA           0.3870    -2.8160    -0.4780 c3         1 X60       0.040200
      3 C           -0.5470    -3.6690    -1.4790 c          1 X60       0.733000
      4 O           -1.4400    -3.0910    -2.0890 o          1 X60      -0.730000
      5 CB1         -0.5370    -2.0310     0.5180 c3         1 X60      -0.034400
      6 CB2          1.3830    -3.7650     0.2840 c3         1 X60      -0.096400
      7 CG1         -1.4490    -2.9030     1.4210 c3         1 X60      -0.070400
      8 CG2          2.2900    -3.1130     1.3590 c3         1 X60      -0.087100
      9 CD1         -2.3700    -2.0650     2.3300 c3         1 X60      -0.082100
     10 OXT         -0.3180    -4.8620    -1.6490 o          1 X60      -0.730000
     11 H            1.9580    -1.4630    -0.5340 hn         1 X60       0.371500
     12 H2           1.7790    -2.2640    -1.9230 hn         1 X60       0.371500
     13 HB12         0.0720    -1.3840     1.1610 hc         1 X60       0.024200
     14 HB11        -1.1780    -1.3490    -0.0560 hc         1 X60       0.024200
     15 HB22         0.8200    -4.5740     0.7640 hc         1 X60       0.044700
     16 HB21         2.0340    -4.2560    -0.4500 hc         1 X60       0.044700
     17 HG12        -2.0710    -3.5590     0.8010 hc         1 X60       0.041700
     18 HG11        -0.8340    -3.5500     2.0580 hc         1 X60       0.041700
     19 HG23         2.9710    -3.8640     1.7770 hc         1 X60       0.011367
     20 HG22         2.9010    -2.3070     0.9380 hc         1 X60       0.011367
     21 HG21         1.6980    -2.7080     2.1880 hc         1 X60       0.011367
     22 HD13        -2.9920    -2.7210     2.9510 hc         1 X60       0.014367
     23 HD12        -1.7790    -1.4220     2.9940 hc         1 X60       0.014367
     24 HD11        -3.0330    -1.4300     1.7310 hc         1 X60       0.014367
@<TRIPOS>BOND
     1     1     2 1   
     2     1    11 1   
     3     1    12 1   
     4     2     3 1   
     5     2     5 1   
     6     2     6 1   
     7     3     4 1   
     8     3    10 1   
     9     5     7 1   
    10     5    13 1   
    11     5    14 1   
    12     6     8 1   
    13     6    15 1   
    14     6    16 1   
    15     7     9 1   
    16     7    17 1   
    17     7    18 1   
    18     8    19 1   
    19     8    20 1   
    20     8    21 1   
    21     9    22 1   
    22     9    23 1   
    23     9    24 1   
@<TRIPOS>SUBSTRUCTURE
     1 X60         1 TEMP              0 ****  ****    0 ROOT
