@<TRIPOS>MOLECULE
X62
   31    32     1     0     0
SMALL
abcg2


@<TRIPOS>ATOM
      1 N01          0.4600    -0.0300     0.0750 nu         1 X62      -0.947200
      2 N02         -1.5080    -3.6880    -0.3240 nt         1 X62      -0.587000
      3 N03          4.8000     0.6460     1.0710 nb         1 X62      -0.155000
      4 N04          4.6000     0.1580    -1.2300 nb         1 X62      -0.155000
      5 N05         -5.1290    -0.2050    -0.0280 no         1 X62       0.711200
      6 C06         -2.9660    -1.2830     0.0640 ca         1 X62       0.038000
      7 C07         -1.5890    -1.3100     0.0620 ca         1 X62      -0.265600
      8 C08         -0.8780    -0.0740     0.0350 ca         1 X62       0.438000
      9 C09         -1.6270     1.1170    -0.0510 ca         1 X62      -0.245000
     10 C10         -3.0010     1.1130    -0.0880 ca         1 X62       0.252000
     11 C11         -3.6960    -0.1020    -0.0180 ca         1 X62      -0.268200
     12 C13          1.2280     1.1940     0.0510 c3         1 X62       0.284100
     13 C14          2.6890     0.8700    -0.0030 ca         1 X62      -0.231300
     14 C15          3.5070     0.9440     1.1130 ca         1 X62       0.142400
     15 C16          5.2600     0.2700    -0.0990 ca         1 X62       0.224000
     16 C17          3.3100     0.4610    -1.1760 ca         1 X62       0.142400
     17 O18          0.2850    -2.6750     0.5750 o          1 X62      -0.639100
     18 O19         -5.7730     0.6900    -0.5230 o          1 X62      -0.400000
     19 O20         -5.6260    -1.2030     0.4510 o          1 X62      -0.400000
     20 CL21        -3.7720     2.6480    -0.1230 cl         1 X62      -0.132000
     21 CL22         6.9410    -0.1240    -0.1630 cl         1 X62      -0.109000
     22 HN01         0.9220    -0.8970     0.3210 hn         1 X62       0.544000
     23 H102        -2.3610    -3.6350    -0.8530 hn         1 X62       0.322500
     24 H202        -1.0470    -4.5840    -0.2980 hn         1 X62       0.322500
     25 H06         -3.5190    -2.2090     0.1330 ha         1 X62       0.146000
     26 H09         -1.1180     2.0700    -0.0640 ha         1 X62       0.138000
     27 H113         0.9570     1.7880    -0.8260 h1         1 X62       0.058700
     28 H213         1.0210     1.8120     0.9310 h1         1 X62       0.058700
     29 H15          3.1120     1.2580     2.0730 h4         1 X62       0.036600
     30 H17          2.7520     0.3770    -2.1030 h4         1 X62       0.036600
     31 C12         -0.8580    -2.6080     0.1240 c          1 X62       0.635700
@<TRIPOS>BOND
     1     1     8 1   
     2     1    12 1   
     3     1    22 1   
     4     2    23 1   
     5     2    24 1   
     6     2    31 1   
     7     3    14 ar  
     8     3    15 ar  
     9     4    15 ar  
    10     4    16 ar  
    11     5    11 1   
    12     5    18 1   
    13     5    19 1   
    14     6     7 ar  
    15     6    11 ar  
    16     6    25 1   
    17     7     8 ar  
    18     7    31 1   
    19     8     9 ar  
    20     9    10 ar  
    21     9    26 1   
    22    10    11 ar  
    23    10    20 1   
    24    12    13 1   
    25    12    27 1   
    26    12    28 1   
    27    13    14 ar  
    28    13    16 ar  
    29    14    29 1   
    30    15    21 1   
    31    16    30 1   
    32    17    31 2   
@<TRIPOS>SUBSTRUCTURE
     1 X62         1 TEMP              0 ****  ****    0 ROOT
