@<TRIPOS>MOLECULE
X62
   31    32     1     0     0
SMALL
No Charge or Current Charge


@<TRIPOS>ATOM
      1 N01          0.4420     0.1330     0.2910 nu         1 X62      -0.947200
      2 N02         -1.3830    -3.6620    -0.3890 nt         1 X62      -0.587000
      3 N03          4.7390     0.7290     1.1720 nb         1 X62      -0.155000
      4 N04          4.6840    -0.1240    -1.0840 nb         1 X62      -0.155000
      5 N05         -5.2160    -0.2010    -0.0360 no         1 X62       0.711200
      6 C06         -2.9680    -1.2840    -0.0750 ca         1 X62       0.038000
      7 C07         -1.5540    -1.2360    -0.0000 ca         1 X62      -0.265600
      8 C08         -0.9380     0.0190     0.2080 ca         1 X62       0.438000
      9 C09         -1.7130     1.1750     0.3530 ca         1 X62      -0.245000
     10 C10         -3.1060     1.1200     0.2770 ca         1 X62       0.252000
     11 C11         -3.7400    -0.1120     0.0540 ca         1 X62      -0.268200
     12 C13          1.2530     1.2340    -0.2230 c3         1 X62       0.284100
     13 C14          2.7070     0.8420    -0.1110 ca         1 X62      -0.231300
     14 C15          3.4400     1.0780     1.0670 ca         1 X62       0.142400
     15 C16          5.2930     0.1450     0.0890 ca         1 X62       0.224000
     16 C17          3.3860     0.2270    -1.1810 ca         1 X62       0.142400
     17 O18          0.4770    -2.5410    -0.0410 o          1 X62      -0.639100
     18 O19         -5.7880     0.5290    -0.8530 o          1 X62      -0.400000
     19 O20         -5.7630    -1.1530     0.5350 o          1 X62      -0.400000
     20 Cl21        -4.0100     2.6160     0.5230 cl         1 X62      -0.132000
     21 Cl22         6.9840    -0.3110     0.2210 cl         1 X62      -0.109000
     22 HN01         0.8900    -0.7910     0.2360 hn         1 X62       0.544000
     23 H102        -2.3840    -3.6870    -0.4870 hn         1 X62       0.322500
     24 H202        -0.8410    -4.5070    -0.4830 hn         1 X62       0.322500
     25 H06         -3.4880    -2.2260    -0.2380 ha         1 X62       0.146000
     26 H09         -1.2370     2.1310     0.5400 ha         1 X62       0.138000
     27 H113         1.0040     1.4350    -1.2750 h1         1 X62       0.058700
     28 H213         1.0710     2.1550     0.3500 h1         1 X62       0.058700
     29 H15          2.9860     1.5480     1.9380 h4         1 X62       0.036600
     30 H17          2.8870     0.0110    -2.1250 h4         1 X62       0.036600
     31 C12         -0.7390    -2.5040    -0.1430 c          1 X62       0.635700
@<TRIPOS>BOND
     1     1     8 1   
     2     1    12 1   
     3     1    22 1   
     4     2    23 1   
     5     2    24 1   
     6     2    31 1   
     7     3    14 ar  
     8     3    15 ar  
     9     4    15 ar  
    10     4    16 ar  
    11     5    11 1   
    12     5    18 1   
    13     5    19 1   
    14     6     7 ar  
    15     6    11 ar  
    16     6    25 1   
    17     7     8 ar  
    18     7    31 1   
    19     8     9 ar  
    20     9    10 ar  
    21     9    26 1   
    22    10    11 ar  
    23    10    20 1   
    24    12    13 1   
    25    12    27 1   
    26    12    28 1   
    27    13    14 ar  
    28    13    16 ar  
    29    14    29 1   
    30    15    21 1   
    31    16    30 1   
    32    17    31 2   
@<TRIPOS>SUBSTRUCTURE
     1 X62         1 TEMP              0 ****  ****    0 ROOT
