@<TRIPOS>MOLECULE
X63
   42    43     1     0     0
SMALL
bcc


@<TRIPOS>ATOM
      1 N01         -1.2130    -0.2820     0.0290 nu         1 X63      -0.756600
      2 N02          0.2670    -4.1430    -0.6150 nt         1 X63      -0.660000
      3 N03         -5.3370     0.6630    -1.1730 nb         1 X63      -0.772500
      4 N04         -5.4010     0.7120     1.2040 nb         1 X63      -0.772500
      5 N05          3.1880     1.4980     0.1660 nu         1 X63      -0.743600
      6 N06         -7.3170     0.4880    -0.0340 nv         1 X63      -0.947500
      7 N07          4.2700    -1.2400     0.1280 no         1 X63       0.338200
      8 C08          1.9960    -1.9900     0.0120 ca         1 X63       0.055000
      9 C09          0.6340    -1.8340    -0.0320 ca         1 X63      -0.305600
     10 C10          0.1100    -0.4970     0.0330 ca         1 X63       0.335600
     11 C11          1.0040     0.5750     0.0690 ca         1 X63      -0.382000
     12 C12          2.3960     0.4210     0.0970 ca         1 X63       0.346600
     13 C13          2.8930    -0.9230     0.0780 ca         1 X63      -0.358200
     14 C15         -1.8230     1.0280     0.1040 c3         1 X63       0.299100
     15 C16         -3.3130     0.9050     0.0670 ca         1 X63      -0.433900
     16 C17         -4.0260     0.8040    -1.1210 ca         1 X63       0.506200
     17 C18         -5.9810     0.6160     0.0010 ca         1 X63       0.914900
     18 C19         -4.0890     0.8530     1.2170 ca         1 X63       0.506200
     19 C20          2.7170     2.8630     0.1420 c3         1 X63       0.221800
     20 C21          3.8550     3.8120     0.4460 c3         1 X63       0.123400
     21 O22         -1.4300    -2.9730     0.2730 o          1 X63      -0.648100
     22 O23          4.8680     3.6320    -0.5170 oh         1 X63      -0.596800
     23 O24          4.6140    -2.4070     0.1680 o          1 X63      -0.252000
     24 O25          5.0950    -0.3340     0.1280 o          1 X63      -0.252000
     25 HN01        -1.8000    -1.0980     0.1390 hn         1 X63       0.484800
     26 H102         1.1340    -4.1600    -1.1220 hn         1 X63       0.317500
     27 H202        -0.3150    -4.9620    -0.6880 hn         1 X63       0.317500
     28 HN05         4.1790     1.3470     0.0720 hn         1 X63       0.488800
     29 H106        -7.7690     0.2600    -0.9020 hn         1 X63       0.446800
     30 H206        -7.8160     0.2940     0.8170 hn         1 X63       0.446800
     31 H08          2.4130    -2.9860     0.0130 ha         1 X63       0.159000
     32 H11          0.6040     1.5770     0.0870 ha         1 X63       0.138000
     33 H115        -1.5140     1.5440     1.0200 h1         1 X63       0.047700
     34 H215        -1.4800     1.6430    -0.7340 h1         1 X63       0.047700
     35 H17         -3.5060     0.8440    -2.0750 h4         1 X63       0.024100
     36 H19         -3.6220     0.9340     2.1950 h4         1 X63       0.024100
     37 H120         2.2670     3.1080    -0.8270 h1         1 X63       0.052700
     38 H220         1.9470     3.0160     0.9020 h1         1 X63       0.052700
     39 H121         3.4540     4.8320     0.4370 h1         1 X63       0.033200
     40 H221         4.2230     3.6170     1.4600 h1         1 X63       0.033200
     41 HO23         5.6550     4.0960    -0.2190 ho         1 X63       0.414000
     42 C14         -0.2600    -3.0150    -0.1130 c          1 X63       0.705700
@<TRIPOS>BOND
     1     1    10 1   
     2     1    14 1   
     3     1    25 1   
     4     2    26 1   
     5     2    27 1   
     6     2    42 1   
     7     3    16 ar  
     8     3    17 ar  
     9     4    17 ar  
    10     4    18 ar  
    11     5    12 1   
    12     5    19 1   
    13     5    28 1   
    14     6    17 1   
    15     6    29 1   
    16     6    30 1   
    17     7    13 1   
    18     7    23 1   
    19     7    24 1   
    20     8     9 ar  
    21     8    13 ar  
    22     8    31 1   
    23     9    10 ar  
    24     9    42 1   
    25    10    11 ar  
    26    11    12 ar  
    27    11    32 1   
    28    12    13 ar  
    29    14    15 1   
    30    14    33 1   
    31    14    34 1   
    32    15    16 ar  
    33    15    18 ar  
    34    16    35 1   
    35    18    36 1   
    36    19    20 1   
    37    19    37 1   
    38    19    38 1   
    39    20    22 1   
    40    20    39 1   
    41    20    40 1   
    42    21    42 2   
    43    22    41 1   
@<TRIPOS>SUBSTRUCTURE
     1 X63         1 TEMP              0 ****  ****    0 ROOT
