@<TRIPOS>MOLECULE
X63
   42    43     1     0     0
SMALL
No Charge or Current Charge


@<TRIPOS>ATOM
      1 N01         -1.2610    -0.1220     0.2780 nu         1 X63      -0.950200
      2 N02          0.0790    -4.0450    -0.6940 nt         1 X63      -0.593000
      3 N03         -5.4830     0.1050    -1.0940 nb         1 X63      -0.246500
      4 N04         -5.4540     0.9390     1.1640 nb         1 X63      -0.246500
      5 N05          3.2250     1.5000     0.4950 nu         1 X63      -0.937200
      6 N06         -7.3900     0.2250     0.1700 nv         1 X63      -1.057900
      7 N07          4.3000    -1.1430    -0.1010 no         1 X63       0.718200
      8 C08          1.9380    -1.9080    -0.2130 ca         1 X63       0.073000
      9 C09          0.5440    -1.6980    -0.1230 ca         1 X63      -0.305600
     10 C10          0.0900    -0.3990     0.1720 ca         1 X63       0.474000
     11 C11          0.9910     0.6430     0.3750 ca         1 X63      -0.364000
     12 C12          2.3640     0.4340     0.2730 ca         1 X63       0.485000
     13 C13          2.8470    -0.8490    -0.0200 ca         1 X63      -0.358200
     14 C15         -1.9320     1.0720    -0.2120 c3         1 X63       0.299100
     15 C16         -3.4180     0.8370    -0.1080 ca         1 X63      -0.303300
     16 C17         -4.1550     0.3110    -1.1850 ca         1 X63       0.177900
     17 C18         -6.0530     0.4320     0.0760 ca         1 X63       0.388900
     18 C19         -4.1250     1.1430     1.0690 ca         1 X63       0.177900
     19 C20          2.9070     2.9390     0.4130 c3         1 X63       0.221800
     20 C21          4.1790     3.8080     0.6240 c3         1 X63       0.146600
     21 O22         -1.6260    -2.7500    -0.1930 o          1 X63      -0.648100
     22 O23          5.2600     3.3650    -0.2210 oh         1 X63      -0.659000
     23 O24          4.6750    -2.2790     0.2090 o          1 X63      -0.442000
     24 O25          5.0570    -0.2770    -0.5560 o          1 X63      -0.442000
     25 HN01        -1.8110    -0.9840     0.1820 hn         1 X63       0.540000
     26 H102         1.0680    -4.1740    -0.8330 hn         1 X63       0.317500
     27 H202        -0.5610    -4.8120    -0.8330 hn         1 X63       0.317500
     28 HN05         4.1920     1.2880     0.2290 hn         1 X63       0.544000
     29 H106        -7.8390    -0.3570    -0.5330 hn         1 X63       0.502000
     30 H206        -7.8230     0.2430     1.0910 hn         1 X63       0.502000
     31 H08          2.3310    -2.8980    -0.4340 ha         1 X63       0.141000
     32 H11          0.6140     1.6250     0.6260 ha         1 X63       0.120000
     33 H115        -1.6480     1.9530     0.3800 h1         1 X63       0.047700
     34 H215        -1.6590     1.2600    -1.2610 h1         1 X63       0.047700
     35 H17         -3.6800     0.0490    -2.1290 h4         1 X63       0.024100
     36 H19         -3.6260     1.5550     1.9450 h4         1 X63       0.024100
     37 H120         2.4800     3.1720    -0.5730 h1         1 X63       0.052700
     38 H220         2.1630     3.2140     1.1730 h1         1 X63       0.052700
     39 H121         3.9310     4.8570     0.4160 h1         1 X63       0.033200
     40 H221         4.4770     3.7410     1.6790 h1         1 X63       0.033200
     41 HO23         6.0200     3.9680    -0.0570 ho         1 X63       0.453000
     42 C14         -0.4180    -2.8450    -0.3360 c          1 X63       0.638700
@<TRIPOS>BOND
     1     1    10 1   
     2     1    14 1   
     3     1    25 1   
     4     2    26 1   
     5     2    27 1   
     6     2    42 1   
     7     3    16 ar  
     8     3    17 ar  
     9     4    17 ar  
    10     4    18 ar  
    11     5    12 1   
    12     5    19 1   
    13     5    28 1   
    14     6    17 1   
    15     6    29 1   
    16     6    30 1   
    17     7    13 1   
    18     7    23 1   
    19     7    24 1   
    20     8     9 ar  
    21     8    13 ar  
    22     8    31 1   
    23     9    10 ar  
    24     9    42 1   
    25    10    11 ar  
    26    11    12 ar  
    27    11    32 1   
    28    12    13 ar  
    29    14    15 1   
    30    14    33 1   
    31    14    34 1   
    32    15    16 ar  
    33    15    18 ar  
    34    16    35 1   
    35    18    36 1   
    36    19    20 1   
    37    19    37 1   
    38    19    38 1   
    39    20    22 1   
    40    20    39 1   
    41    20    40 1   
    42    21    42 2   
    43    22    41 1   
@<TRIPOS>SUBSTRUCTURE
     1 X63         1 TEMP              0 ****  ****    0 ROOT
