@<TRIPOS>MOLECULE
X64
   41    43     1     0     0
SMALL
abcg2


@<TRIPOS>ATOM
      1 N01        -65.6110    82.3600    86.7660 nc         1 X64      -0.801000
      2 N02        -63.9770    82.5620    85.1460 nu         1 X64      -0.923900
      3 N03        -67.4410    81.9590    88.1610 nv         1 X64      -1.044900
      4 N04        -61.9980    82.1980    78.8620 n8         1 X64      -0.991100
      5 N05        -70.5430    80.1160    84.1860 no         1 X64       0.674200
      6 C06        -67.1500    80.7240    86.0970 cd         1 X64      -0.469600
      7 C07        -66.7580    81.6890    87.0460 cc         1 X64       0.700900
      8 C08        -65.0930    81.9630    85.6200 cd         1 X64       0.759300
      9 C09        -63.2680    82.3400    83.9630 ca         1 X64       0.358000
     10 C10        -68.3220    79.9400    86.1460 c          1 X64       0.652300
     11 C11        -68.5430    78.9300    85.0490 ca         1 X64      -0.085600
     12 C12        -69.6340    78.9650    84.1790 ca         1 X64      -0.126200
     13 C13        -69.8840    77.9610    83.2550 ca         1 X64      -0.058000
     14 C14        -69.0100    76.8860    83.1770 ca         1 X64      -0.106000
     15 C15        -67.9150    76.8230    84.0300 ca         1 X64      -0.077000
     16 C16        -67.6880    77.8340    84.9580 ca         1 X64      -0.098000
     17 C17        -63.2340    81.1020    83.3170 ca         1 X64      -0.174000
     18 C18        -62.5150    80.9540    82.1410 ca         1 X64       0.020500
     19 C19        -61.8150    82.0330    81.6130 ca         1 X64      -0.357500
     20 C20        -61.8170    83.2640    82.2680 ca         1 X64       0.020500
     21 C21        -62.5390    83.4140    83.4360 ca         1 X64      -0.174000
     22 O22        -69.1540    80.0100    87.0700 o          1 X64      -0.580100
     23 O23        -60.6060    80.4570    79.9260 o          1 X64      -0.534500
     24 O24        -59.9200    82.8590    80.0230 o          1 X64      -0.534500
     25 O25        -71.7170    79.9210    83.9000 o          1 X64      -0.386500
     26 O26        -70.0800    81.2140    84.4590 o          1 X64      -0.386500
     27 S27        -65.9710    80.7080    84.7900 ss         1 X64      -0.042400
     28 S28        -60.9510    81.8510    80.0800 sy         1 X64       1.165600
     29 HN02       -63.7040    83.3760    85.6830 hn         1 X64       0.519000
     30 H103       -67.1240    82.6790    88.7890 hn         1 X64       0.524000
     31 H203       -68.3060    81.4650    88.3220 hn         1 X64       0.524000
     32 H104       -62.7770    81.5490    78.8170 hn         1 X64       0.474000
     33 H204       -62.3130    83.1630    78.8810 hn         1 X64       0.474000
     34 H13        -70.7360    78.0390    82.5950 ha         1 X64       0.150000
     35 H14        -69.1850    76.1050    82.4490 ha         1 X64       0.130000
     36 H15        -67.2340    75.9840    83.9780 ha         1 X64       0.127000
     37 H16        -66.8450    77.7690    85.6330 ha         1 X64       0.134000
     38 H17        -63.7260    80.2390    83.7380 ha         1 X64       0.130500
     39 H18        -62.4870    79.9930    81.6470 ha         1 X64       0.141000
     40 H20        -61.2610    84.0980    81.8640 ha         1 X64       0.141000
     41 H21        -62.5510    84.3690    83.9470 ha         1 X64       0.130500
@<TRIPOS>BOND
     1     1     7 1   
     2     1     8 2   
     3     2     8 1   
     4     2     9 1   
     5     2    29 1   
     6     3     7 1   
     7     3    30 1   
     8     3    31 1   
     9     4    28 1   
    10     4    32 1   
    11     4    33 1   
    12     5    12 1   
    13     5    25 1   
    14     5    26 1   
    15     6     7 2   
    16     6    10 1   
    17     6    27 1   
    18     8    27 1   
    19     9    17 ar  
    20     9    21 ar  
    21    10    11 1   
    22    10    22 2   
    23    11    12 ar  
    24    11    16 ar  
    25    12    13 ar  
    26    13    14 ar  
    27    13    34 1   
    28    14    15 ar  
    29    14    35 1   
    30    15    16 ar  
    31    15    36 1   
    32    16    37 1   
    33    17    18 ar  
    34    17    38 1   
    35    18    19 ar  
    36    18    39 1   
    37    19    20 ar  
    38    19    28 1   
    39    20    21 ar  
    40    20    40 1   
    41    21    41 1   
    42    23    28 2   
    43    24    28 2   
@<TRIPOS>SUBSTRUCTURE
     1 X64         1 TEMP              0 ****  ****    0 ROOT
