@<TRIPOS>MOLECULE
X64
   41    43     1     0     0
SMALL
No Charge or Current Charge


@<TRIPOS>ATOM
      1 N01        -65.6110    82.2520    86.5430 nc         1 X64      -0.801000
      2 N02        -64.1230    82.4600    84.9100 nu         1 X64      -0.923900
      3 N03        -67.1940    81.9550    88.0220 nv         1 X64      -1.044900
      4 N04        -61.5650    82.3250    78.9190 n8         1 X64      -0.991100
      5 N05        -70.9300    79.9700    84.5970 no         1 X64       0.674200
      6 C06        -67.1710    80.6010    86.0280 cd         1 X64      -0.469600
      7 C07        -66.7050    81.5540    86.8720 cc         1 X64       0.700900
      8 C08        -65.1800    81.7930    85.4000 cd         1 X64       0.759300
      9 C09        -63.3030    82.3270    83.7950 ca         1 X64       0.358000
     10 C10        -68.4130    79.8350    86.2270 c          1 X64       0.652300
     11 C11        -68.7530    78.7900    85.1920 ca         1 X64      -0.085600
     12 C12        -69.9680    78.8340    84.4520 ca         1 X64      -0.126200
     13 C13        -70.2660    77.7940    83.5410 ca         1 X64      -0.058000
     14 C14        -69.3690    76.7300    83.3570 ca         1 X64      -0.106000
     15 C15        -68.1680    76.6880    84.0820 ca         1 X64      -0.077000
     16 C16        -67.8650    77.7100    84.9960 ca         1 X64      -0.098000
     17 C17        -63.1620    81.1110    83.1050 ca         1 X64      -0.174000
     18 C18        -62.3160    81.0190    81.9870 ca         1 X64       0.020500
     19 C19        -61.5960    82.1500    81.5560 ca         1 X64      -0.357500
     20 C20        -61.7220    83.3680    82.2550 ca         1 X64       0.020500
     21 C21        -62.5710    83.4450    83.3710 ca         1 X64      -0.174000
     22 O22        -69.1450    80.0210    87.1910 o          1 X64      -0.580100
     23 O23        -60.0720    80.6510    79.9390 o          1 X64      -0.534500
     24 O24        -59.6060    83.1750    80.1010 o          1 X64      -0.534500
     25 O25        -72.1380    79.7160    84.4990 o          1 X64      -0.386500
     26 O26        -70.4710    81.1190    84.6210 o          1 X64      -0.386500
     27 S27        -66.1160    80.5120    84.6240 ss         1 X64      -0.042400
     28 S28        -60.5150    82.0310    80.1340 sy         1 X64       1.165600
     29 HN02       -63.9540    83.2730    85.4910 hn         1 X64       0.519000
     30 H103       -66.9070    82.8880    88.2870 hn         1 X64       0.524000
     31 H203       -68.1620    81.7060    88.1920 hn         1 X64       0.524000
     32 H104       -62.3290    82.7790    79.4110 hn         1 X64       0.474000
     33 H204       -61.0930    83.0880    78.4410 hn         1 X64       0.474000
     34 H13        -71.1890    77.8150    82.9640 ha         1 X64       0.150000
     35 H14        -69.6040    75.9360    82.6510 ha         1 X64       0.130000
     36 H15        -67.4750    75.8610    83.9400 ha         1 X64       0.127000
     37 H16        -66.9390    77.6570    85.5660 ha         1 X64       0.134000
     38 H17        -63.6830    80.2200    83.4350 ha         1 X64       0.130500
     39 H18        -62.2200    80.0670    81.4660 ha         1 X64       0.141000
     40 H20        -61.1680    84.2530    81.9430 ha         1 X64       0.141000
     41 H21        -62.6640    84.3880    83.9030 ha         1 X64       0.130500
@<TRIPOS>BOND
     1     1     7 1   
     2     1     8 2   
     3     2     8 1   
     4     2     9 1   
     5     2    29 1   
     6     3     7 1   
     7     3    30 1   
     8     3    31 1   
     9     4    28 1   
    10     4    32 1   
    11     4    33 1   
    12     5    12 1   
    13     5    25 1   
    14     5    26 1   
    15     6     7 2   
    16     6    10 1   
    17     6    27 1   
    18     8    27 1   
    19     9    17 ar  
    20     9    21 ar  
    21    10    11 1   
    22    10    22 2   
    23    11    12 ar  
    24    11    16 ar  
    25    12    13 ar  
    26    13    14 ar  
    27    13    34 1   
    28    14    15 ar  
    29    14    35 1   
    30    15    16 ar  
    31    15    36 1   
    32    16    37 1   
    33    17    18 ar  
    34    17    38 1   
    35    18    19 ar  
    36    18    39 1   
    37    19    20 ar  
    38    19    28 1   
    39    20    21 ar  
    40    20    40 1   
    41    21    41 1   
    42    23    28 2   
    43    24    28 2   
@<TRIPOS>SUBSTRUCTURE
     1 X64         1 TEMP              0 ****  ****    0 ROOT
