@<TRIPOS>MOLECULE
X65
   38    39     1     0     0
SMALL
abcg2


@<TRIPOS>ATOM
      1 C1          -2.8830     1.5610     0.2320 ca         1 X65      -0.242000
      2 C2          -4.2510     1.6090     0.2520 ca         1 X65       0.035000
      3 C3          -4.9860     0.4400     0.0530 ca         1 X65      -0.276200
      4 C4          -4.3330    -0.7690    -0.1390 ca         1 X65       0.040000
      5 C5          -2.9530    -0.8460    -0.1430 ca         1 X65      -0.272600
      6 C6          -2.1860     0.3500     0.0110 ca         1 X65       0.436000
      7 N7          -0.8490     0.3350    -0.0290 nu         1 X65      -0.946200
      8 N8          -6.4180     0.4850     0.0430 no         1 X65       0.709200
      9 O9          -7.0300    -0.5470    -0.1430 o          1 X65      -0.415500
     10 O10         -6.9610     1.5550     0.2220 o          1 X65      -0.415500
     11 C11         -2.2770    -2.1600    -0.3390 c          1 X65       0.633700
     12 N12         -2.9780    -3.2560    -0.0200 nt         1 X65      -0.590000
     13 O13         -1.1300    -2.2320    -0.7780 o          1 X65      -0.640100
     14 C14         -0.0130     1.5050     0.1400 c3         1 X65       0.266100
     15 C15          4.0610     0.2270     0.0750 ca         1 X65      -0.256500
     16 C16          3.3760     0.3780    -1.1210 ca         1 X65      -0.010500
     17 C17          2.0600     0.8140    -1.0910 ca         1 X65      -0.110500
     18 C18          1.4300     1.0870     0.1190 ca         1 X65      -0.065300
     19 C19          2.1360     0.9230     1.3070 ca         1 X65      -0.110500
     20 C20          3.4540     0.4990     1.2930 ca         1 X65      -0.010500
     21 O22          5.9970    -1.1040     1.2720 o          1 X65      -0.539500
     22 O23          5.9880    -0.9650    -1.2260 o          1 X65      -0.539500
     23 N24          6.5570     1.0880     0.2490 n8         1 X65      -1.005100
     24 H1          -2.3330     2.4800     0.3760 ha         1 X65       0.126000
     25 H2          -4.7440     2.5570     0.4140 ha         1 X65       0.148000
     26 H4          -4.9220    -1.6600    -0.3050 ha         1 X65       0.144000
     27 HN7         -0.4210    -0.5390    -0.3100 hn         1 X65       0.546000
     28 H112        -3.8380    -3.2270     0.4990 hn         1 X65       0.321500
     29 H212        -2.5480    -4.1590    -0.1340 hn         1 X65       0.321500
     30 H114        -0.2020     2.2350    -0.6540 h1         1 X65       0.056700
     31 H214        -0.2430     1.9960     1.0890 h1         1 X65       0.056700
     32 H16          3.8500     0.1620    -2.0690 ha         1 X65       0.141500
     33 H17          1.5220     0.9410    -2.0220 ha         1 X65       0.124000
     34 H19          1.6550     1.1290     2.2550 ha         1 X65       0.124000
     35 H20          3.9910     0.3760     2.2240 ha         1 X65       0.141500
     36 H124         6.5790     1.6420    -0.6010 hn         1 X65       0.475000
     37 H224         7.5010     0.9330     0.5930 hn         1 X65       0.475000
     38 S21          5.7400    -0.3350     0.0630 sy         1 X65       1.125600
@<TRIPOS>BOND
     1     1     2 ar  
     2     1     6 ar  
     3     1    24 1   
     4     2     3 ar  
     5     2    25 1   
     6     3     4 ar  
     7     3     8 1   
     8     4     5 ar  
     9     4    26 1   
    10     5     6 ar  
    11     5    11 1   
    12     6     7 1   
    13     7    14 1   
    14     7    27 1   
    15     8     9 1   
    16     8    10 1   
    17    11    12 1   
    18    11    13 2   
    19    12    28 1   
    20    12    29 1   
    21    14    18 1   
    22    14    30 1   
    23    14    31 1   
    24    15    16 ar  
    25    15    20 ar  
    26    15    38 1   
    27    16    17 ar  
    28    16    32 1   
    29    17    18 ar  
    30    17    33 1   
    31    18    19 ar  
    32    19    20 ar  
    33    19    34 1   
    34    20    35 1   
    35    21    38 2   
    36    22    38 2   
    37    23    36 1   
    38    23    37 1   
    39    23    38 1   
@<TRIPOS>SUBSTRUCTURE
     1 X65         1 TEMP              0 ****  ****    0 ROOT
