@<TRIPOS>MOLECULE
X65
   38    39     1     0     0
SMALL
No Charge or Current Charge


@<TRIPOS>ATOM
      1 C1          -3.0060     1.5490     0.6100 ca         1 X65      -0.242000
      2 C2          -4.4020     1.5740     0.5290 ca         1 X65       0.035000
      3 C3          -5.1010     0.4080     0.1650 ca         1 X65      -0.276200
      4 C4          -4.3800    -0.7750    -0.1110 ca         1 X65       0.040000
      5 C5          -2.9650    -0.8070    -0.0310 ca         1 X65      -0.272600
      6 C6          -2.2860     0.3790     0.3310 ca         1 X65       0.436000
      7 N7          -0.9030     0.4120     0.4250 nu         1 X65      -0.946200
      8 N8          -6.5950     0.4250     0.0770 no         1 X65       0.709200
      9 O9          -7.1750    -0.6190    -0.2480 o          1 X65      -0.415500
     10 O10         -7.1840     1.4830     0.3320 o          1 X65      -0.415500
     11 C11         -2.2130    -2.0870    -0.3290 c          1 X65       0.633700
     12 N12         -2.9110    -3.1660    -0.7380 nt         1 X65      -0.590000
     13 O13         -1.0030    -2.2040    -0.2150 o          1 X65      -0.640100
     14 C14         -0.0310     1.5350     0.0620 c3         1 X65       0.266100
     15 C15          4.1220     0.2480     0.1490 ca         1 X65      -0.256500
     16 C16          3.3630     0.1130    -1.0320 ca         1 X65      -0.010500
     17 C17          2.0210     0.5300    -1.0560 ca         1 X65      -0.110500
     18 C18          1.4240     1.0870     0.0920 ca         1 X65      -0.065300
     19 C19          2.1860     1.2200     1.2690 ca         1 X65      -0.110500
     20 C20          3.5290     0.8050     1.3000 ca         1 X65      -0.010500
     21 O22          6.2880    -0.5080     1.5570 o          1 X65      -0.539500
     22 O23          6.1150    -1.2330    -0.8910 o          1 X65      -0.539500
     23 N24          6.6520     1.0560    -0.2690 n8         1 X65      -1.005100
     24 H1          -2.4830     2.4540     0.9020 ha         1 X65       0.126000
     25 H2          -4.9290     2.5010     0.7540 ha         1 X65       0.148000
     26 H4          -4.9340    -1.6710    -0.3840 ha         1 X65       0.144000
     27 HN7         -0.5000    -0.5200     0.2570 hn         1 X65       0.546000
     28 H112        -3.9100    -3.1210    -0.8560 hn         1 X65       0.321500
     29 H212        -2.4120    -4.0200    -0.9350 hn         1 X65       0.321500
     30 H114        -0.2770     1.8930    -0.9480 h1         1 X65       0.056700
     31 H214        -0.1710     2.3750     0.7560 h1         1 X65       0.056700
     32 H16          3.8070    -0.3130    -1.9300 ha         1 X65       0.141500
     33 H17          1.4430     0.4190    -1.9710 ha         1 X65       0.124000
     34 H19          1.7350     1.6440     2.1640 ha         1 X65       0.124000
     35 H20          4.1020     0.9180     2.2200 ha         1 X65       0.141500
     36 H124         7.2190     0.6790    -1.0240 hn         1 X65       0.475000
     37 H224         7.3260     1.1260     0.4890 hn         1 X65       0.475000
     38 S21          5.8390    -0.2840     0.1850 sy         1 X65       1.125600
@<TRIPOS>BOND
     1     1     2 ar  
     2     1     6 ar  
     3     1    24 1   
     4     2     3 ar  
     5     2    25 1   
     6     3     4 ar  
     7     3     8 1   
     8     4     5 ar  
     9     4    26 1   
    10     5     6 ar  
    11     5    11 1   
    12     6     7 1   
    13     7    14 1   
    14     7    27 1   
    15     8     9 1   
    16     8    10 1   
    17    11    12 1   
    18    11    13 2   
    19    12    28 1   
    20    12    29 1   
    21    14    18 1   
    22    14    30 1   
    23    14    31 1   
    24    15    16 ar  
    25    15    20 ar  
    26    15    38 1   
    27    16    17 ar  
    28    16    32 1   
    29    17    18 ar  
    30    17    33 1   
    31    18    19 ar  
    32    19    20 ar  
    33    19    34 1   
    34    20    35 1   
    35    21    38 2   
    36    22    38 2   
    37    23    36 1   
    38    23    37 1   
    39    23    38 1   
@<TRIPOS>SUBSTRUCTURE
     1 X65         1 TEMP              0 ****  ****    0 ROOT
