@<TRIPOS>MOLECULE
X66
   25    26     1     0     0
SMALL
No Charge or Current Charge


@<TRIPOS>ATOM
      1 N1          -3.2840    -0.4160     0.0640 nb         1 X66      -0.366000
      2 C2          -2.3900    -1.4040     0.0120 ca         1 X66       0.457400
      3 N3          -2.8780    -2.6570    -0.0430 nv         1 X66      -1.067400
      4 N4          -1.0610    -1.2760     0.0020 nb         1 X66      -0.358000
      5 C5          -0.5940    -0.0090     0.0530 cp         1 X66       0.313500
      6 C6           0.9080     0.1990     0.0540 cp         1 X66      -0.244500
      7 C7           1.5310     1.4760    -0.1080 ca         1 X66       0.186100
      8 O8           0.8050     2.6110    -0.2850 oh         1 X66      -0.560100
      9 C9           2.9290     1.6080    -0.1040 ca         1 X66      -0.150000
     10 C10          3.7540     0.4860     0.0630 ca         1 X66      -0.072000
     11 C11          3.1780    -0.7790     0.2250 ca         1 X66       0.072100
     12 O12          3.9820    -1.8710     0.3870 oh         1 X66      -0.538100
     13 C13          1.7790    -0.9210     0.2200 ca         1 X66      -0.113000
     14 N14         -1.4140     1.0650     0.1120 nb         1 X66      -0.358000
     15 C15         -2.7230     0.7920     0.1130 ca         1 X66       0.457400
     16 N16         -3.5600     1.8440     0.1720 nv         1 X66      -1.067400
     17 H1N3        -3.8560    -2.7700    -0.2930 hn         1 X66       0.509250
     18 H2N3        -2.2480    -3.3990    -0.3380 hn         1 X66       0.509250
     19 HO8         -0.1420     2.3470    -0.2170 ho         1 X66       0.520000
     20 H9           3.3780     2.5900    -0.2320 ha         1 X66       0.131000
     21 H10          4.8350     0.5990     0.0650 ha         1 X66       0.128000
     22 HO12         3.4200    -2.6700     0.4850 ho         1 X66       0.461000
     23 H13          1.3650    -1.9180     0.3520 ha         1 X66       0.134000
     24 H116        -3.1840     2.7340     0.4860 hn         1 X66       0.509250
     25 H216        -4.5330     1.6610     0.4060 hn         1 X66       0.509250
@<TRIPOS>BOND
     1     1     2 ar  
     2     1    15 ar  
     3     2     3 1   
     4     2     4 ar  
     5     3    17 1   
     6     3    18 1   
     7     4     5 ar  
     8     5     6 1   
     9     5    14 ar  
    10     6     7 ar  
    11     6    13 ar  
    12     7     8 1   
    13     7     9 ar  
    14     8    19 1   
    15     9    10 ar  
    16     9    20 1   
    17    10    11 ar  
    18    10    21 1   
    19    11    12 1   
    20    11    13 ar  
    21    12    22 1   
    22    13    23 1   
    23    14    15 ar  
    24    15    16 1   
    25    16    24 1   
    26    16    25 1   
@<TRIPOS>SUBSTRUCTURE
     1 X66         1 TEMP              0 ****  ****    0 ROOT
