@<TRIPOS>MOLECULE
X66
   25    26     1     0     0
SMALL
abcg2


@<TRIPOS>ATOM
      1 N1          -3.2090    -0.3940     0.0490 nb         1 X66      -0.366000
      2 C2          -2.3450    -1.4080     0.0650 ca         1 X66       0.457400
      3 N3          -2.8410    -2.6440     0.0760 nv         1 X66      -1.067400
      4 N4          -1.0080    -1.2860     0.0740 nb         1 X66      -0.358000
      5 C5          -0.5580    -0.0450     0.0640 cp         1 X66       0.313500
      6 C6           0.8970     0.1730     0.0720 cp         1 X66      -0.244500
      7 C7           1.4520     1.4650     0.0610 ca         1 X66       0.186100
      8 O8           0.7230     2.5870     0.0440 oh         1 X66      -0.560100
      9 C9           2.8440     1.5950     0.0690 ca         1 X66      -0.150000
     10 C10          3.6670     0.4890     0.0860 ca         1 X66      -0.072000
     11 C11          3.1210    -0.7960     0.0960 ca         1 X66       0.072100
     12 O12          3.9790    -1.8440     0.1110 oh         1 X66      -0.538100
     13 C13          1.7490    -0.9410     0.0890 ca         1 X66      -0.113000
     14 N14         -1.3320     1.0400     0.0480 nb         1 X66      -0.358000
     15 C15         -2.6580     0.8130     0.0410 ca         1 X66       0.457400
     16 N16         -3.4600     1.8750     0.0200 nv         1 X66      -1.067400
     17 H1N3        -3.8340    -2.7950     0.0500 hn         1 X66       0.509250
     18 H2N3        -2.2290    -3.4410     0.0640 hn         1 X66       0.509250
     19 HO8         -0.2310     2.3120     0.0410 ho         1 X66       0.520000
     20 H9           3.2770     2.5880     0.0600 ha         1 X66       0.131000
     21 H10          4.7420     0.6180     0.0900 ha         1 X66       0.128000
     22 HO12         3.4910    -2.6740     0.1030 ho         1 X66       0.461000
     23 H13          1.3010    -1.9270     0.0980 ha         1 X66       0.134000
     24 H116        -3.0840     2.8070     0.0400 hn         1 X66       0.509250
     25 H216        -4.4580     1.7560     0.0410 hn         1 X66       0.509250
@<TRIPOS>BOND
     1     1     2 ar  
     2     1    15 ar  
     3     2     3 1   
     4     2     4 ar  
     5     3    17 1   
     6     3    18 1   
     7     4     5 ar  
     8     5     6 1   
     9     5    14 ar  
    10     6     7 ar  
    11     6    13 ar  
    12     7     8 1   
    13     7     9 ar  
    14     8    19 1   
    15     9    10 ar  
    16     9    20 1   
    17    10    11 ar  
    18    10    21 1   
    19    11    12 1   
    20    11    13 ar  
    21    12    22 1   
    22    13    23 1   
    23    14    15 ar  
    24    15    16 1   
    25    16    24 1   
    26    16    25 1   
@<TRIPOS>SUBSTRUCTURE
     1 X66         1 TEMP              0 ****  ****    0 ROOT
