@<TRIPOS>MOLECULE
X67
   24    25     1     0     0
SMALL
abcg2


@<TRIPOS>ATOM
      1 C1           2.4050     1.3850     0.0200 ca         1 X67       0.456900
      2 N2           2.9180     2.6150     0.0450 nv         1 X67      -1.068900
      3 N3           1.0690     1.2780     0.0180 nb         1 X67      -0.355500
      4 C4           0.6050     0.0430    -0.0110 cp         1 X67       0.311500
      5 C5          -0.8530    -0.1540    -0.0190 cp         1 X67      -0.261500
      6 C6          -1.6870     0.9710    -0.0120 ca         1 X67      -0.055000
      7 C7          -3.0470     0.8170    -0.0270 ca         1 X67       0.098000
      8 F8          -3.8410     1.9040    -0.0260 f          1 X67      -0.182000
      9 C9          -3.6330    -0.4400    -0.0460 ca         1 X67      -0.080000
     10 C10         -2.8250    -1.5560    -0.0510 ca         1 X67      -0.161000
     11 C11         -1.4300    -1.4400    -0.0400 ca         1 X67       0.205100
     12 O12         -0.7230    -2.5640    -0.0500 oh         1 X67      -0.551100
     13 N13          1.3680    -1.0500    -0.0340 nb         1 X67      -0.355500
     14 C14          2.6910    -0.8310    -0.0320 ca         1 X67       0.456900
     15 N15          3.4900    -1.9040    -0.0580 nv         1 X67      -1.068900
     16 N16          3.2590     0.3630    -0.0050 nb         1 X67      -0.362000
     17 H1N2         3.9110     2.7510     0.0700 hn         1 X67       0.509000
     18 H2N2         2.3210     3.4190     0.0920 hn         1 X67       0.509000
     19 H6          -1.2460     1.9590     0.0020 ha         1 X67       0.151000
     20 H9          -4.7100    -0.5410    -0.0610 ha         1 X67       0.131000
     21 H10         -3.2610    -2.5460    -0.0680 ha         1 X67       0.133000
     22 HO12         0.2320    -2.3100    -0.0460 ho         1 X67       0.523000
     23 H115         3.1070    -2.8300    -0.0840 hn         1 X67       0.509000
     24 H215         4.4850    -1.7810    -0.0580 hn         1 X67       0.509000
@<TRIPOS>BOND
     1     1     2 1   
     2     1     3 ar  
     3     1    16 ar  
     4     2    17 1   
     5     2    18 1   
     6     3     4 ar  
     7     4     5 1   
     8     4    13 ar  
     9     5     6 ar  
    10     5    11 ar  
    11     6     7 ar  
    12     6    19 1   
    13     7     8 1   
    14     7     9 ar  
    15     9    10 ar  
    16     9    20 1   
    17    10    11 ar  
    18    10    21 1   
    19    11    12 1   
    20    12    22 1   
    21    13    14 ar  
    22    14    15 1   
    23    14    16 ar  
    24    15    23 1   
    25    15    24 1   
@<TRIPOS>SUBSTRUCTURE
     1 X67         1 TEMP              0 ****  ****    0 ROOT
