@<TRIPOS>MOLECULE
X67
   24    25     1     0     0
SMALL
No Charge or Current Charge


@<TRIPOS>ATOM
      1 C1           2.4560     1.3810     0.0400 ca         1 X67       0.456900
      2 N2           2.9570     2.6290     0.0980 nv         1 X67      -1.068900
      3 N3           1.1250     1.2690     0.0380 nb         1 X67      -0.355500
      4 C4           0.6450     0.0070    -0.0200 cp         1 X67       0.311500
      5 C5          -0.8580    -0.1820    -0.0320 cp         1 X67      -0.261500
      6 C6          -1.7120     0.9550    -0.1710 ca         1 X67      -0.055000
      7 C7          -3.1100     0.8300    -0.1860 ca         1 X67       0.098000
      8 F8          -3.8810     1.9320    -0.3210 f          1 X67      -0.182000
      9 C9          -3.7110    -0.4270    -0.0610 ca         1 X67      -0.080000
     10 C10         -2.9020    -1.5640     0.0790 ca         1 X67      -0.161000
     11 C11         -1.5020    -1.4520     0.0930 ca         1 X67       0.205100
     12 O12         -0.7940    -2.6030     0.2420 oh         1 X67      -0.551100
     13 N13          1.4520    -1.0770    -0.0740 nb         1 X67      -0.355500
     14 C14          2.7640    -0.8190    -0.0650 ca         1 X67       0.456900
     15 N15          3.5900    -1.8810    -0.1190 nv         1 X67      -1.068900
     16 N16          3.3390     0.3830    -0.0090 nb         1 X67      -0.362000
     17 H1N2         3.9360     2.7310     0.3550 hn         1 X67       0.509000
     18 H2N2         2.3340     3.3780     0.3880 hn         1 X67       0.509000
     19 H6          -1.2970     1.9550    -0.2750 ha         1 X67       0.151000
     20 H9          -4.7940    -0.5180    -0.0730 ha         1 X67       0.131000
     21 H10         -3.3650    -2.5430     0.1780 ha         1 X67       0.133000
     22 HO12         0.1580    -2.3500     0.1930 ho         1 X67       0.523000
     23 H115         3.2060    -2.7660    -0.4360 hn         1 X67       0.509000
     24 H215         4.5670    -1.7100    -0.3440 hn         1 X67       0.509000
@<TRIPOS>BOND
     1     1     2 1   
     2     1     3 ar  
     3     1    16 ar  
     4     2    17 1   
     5     2    18 1   
     6     3     4 ar  
     7     4     5 1   
     8     4    13 ar  
     9     5     6 ar  
    10     5    11 ar  
    11     6     7 ar  
    12     6    19 1   
    13     7     8 1   
    14     7     9 ar  
    15     9    10 ar  
    16     9    20 1   
    17    10    11 ar  
    18    10    21 1   
    19    11    12 1   
    20    12    22 1   
    21    13    14 ar  
    22    14    15 1   
    23    14    16 ar  
    24    15    23 1   
    25    15    24 1   
@<TRIPOS>SUBSTRUCTURE
     1 X67         1 TEMP              0 ****  ****    0 ROOT
