@<TRIPOS>MOLECULE
X68
   39    40     1     0     0
SMALL
No Charge or Current Charge


@<TRIPOS>ATOM
      1 C13         17.5600     8.3570    11.9600 c3         1 X68       0.144800
      2 C15         15.9150     7.0430    13.4710 ca         1 X68       0.339000
      3 C17         15.4380     7.5980    15.7990 ca         1 X68      -0.045000
      4 C21         14.8000     6.1990    13.4450 ca         1 X68      -0.226000
      5 C24         13.7250    11.0970    15.6740 ca         1 X68      -0.084500
      6 C02         12.7950    10.0530    15.8040 ca         1 X68      -0.000900
      7 C03         12.4360     9.2860    14.6850 ca         1 X68      -0.084500
      8 C04         13.0150     9.5570    13.4340 ca         1 X68      -0.085000
      9 C05         13.9470    10.6070    13.2920 ca         1 X68      -0.108300
     10 C06         14.6100    10.8770    11.9410 c3         1 X68       0.101000
     11 C07         13.5630    11.0240    10.7980 c          1 X68       0.572100
     12 C12         16.8600     9.7440    12.1300 c          1 X68       0.581100
     13 C16         16.2350     7.7400    14.6490 ca         1 X68      -0.204000
     14 C18         14.3200     6.7500    15.7670 ca         1 X68      -0.195000
     15 C19         14.0050     6.0560    14.5900 ca         1 X68       0.210000
     16 C23         14.3000    11.3730    14.4210 ca         1 X68      -0.085000
     17 F20         12.9250     5.2470    14.5590 f          1 X68      -0.184000
     18 N08         12.6870    12.0940    10.9210 ns         1 X68      -0.360400
     19 N11         15.5690     9.7960    11.6550 ns         1 X68      -0.488900
     20 N14         16.6820     7.1850    12.3130 nu         1 X68      -0.992200
     21 O09         11.5610    12.2210    10.0210 oh         1 X68      -0.438100
     22 O10         13.4710    10.2480     9.8500 o          1 X68      -0.616100
     23 O22         17.3920    10.7040    12.6760 o          1 X68      -0.602100
     24 H1          18.4550     8.3680    12.5960 h1         1 X68       0.076200
     25 H2          17.8930     8.2840    10.9160 h1         1 X68       0.076200
     26 H3          15.6860     8.1430    16.7080 ha         1 X68       0.119000
     27 H4          14.5400     5.6580    12.5410 ha         1 X68       0.131000
     28 H5          14.0070    11.6860    16.5430 ha         1 X68       0.134500
     29 H6          11.7220     8.4720    14.7890 ha         1 X68       0.134500
     30 H7          12.7440     8.9410    12.5790 ha         1 X68       0.124000
     31 H8          15.1530    11.8300    11.9840 h1         1 X68       0.088700
     32 H9          17.1010     8.3930    14.6840 ha         1 X68       0.125000
     33 H10         13.6950     6.6340    16.6490 ha         1 X68       0.136000
     34 H11         15.0310    12.1740    14.3340 ha         1 X68       0.124000
     35 H12         12.6410    12.6220    11.7920 hn         1 X68       0.363500
     36 H13         15.2190     8.9390    11.2420 hn         1 X68       0.352500
     37 H14         16.4640     6.5230    11.5620 hn         1 X68       0.494000
     38 H15         11.5610    11.3490     9.5540 ho         1 X68       0.477000
     39 Br01        12.0300     9.6620    17.5120 br         1 X68      -0.104100
@<TRIPOS>BOND
     1     1    12 1   
     2     1    20 1   
     3     1    24 1   
     4     1    25 1   
     5     2     4 ar  
     6     2    13 ar  
     7     2    20 1   
     8     3    13 ar  
     9     3    14 ar  
    10     3    26 1   
    11     4    15 ar  
    12     4    27 1   
    13     5     6 ar  
    14     5    16 ar  
    15     5    28 1   
    16     6     7 ar  
    17     6    39 1   
    18     7     8 ar  
    19     7    29 1   
    20     8     9 ar  
    21     8    30 1   
    22     9    10 1   
    23     9    16 ar  
    24    10    11 1   
    25    10    19 1   
    26    10    31 1   
    27    11    18 1   
    28    11    22 2   
    29    12    19 1   
    30    12    23 2   
    31    13    32 1   
    32    14    15 ar  
    33    14    33 1   
    34    15    17 1   
    35    16    34 1   
    36    18    21 1   
    37    18    35 1   
    38    19    36 1   
    39    20    37 1   
    40    21    38 1   
@<TRIPOS>SUBSTRUCTURE
     1 X68         1 TEMP              0 ****  ****    0 ROOT
