@<TRIPOS>MOLECULE
X68
   39    40     1     0     0
SMALL
abcg2


@<TRIPOS>ATOM
      1 C13         17.3590     8.3830    12.1980 c3         1 X68       0.144800
      2 C15         15.7800     6.6810    13.0600 ca         1 X68       0.339000
      3 C17         15.0530     6.6150    15.3700 ca         1 X68      -0.045000
      4 C21         15.0140     5.5290    12.8120 ca         1 X68      -0.226000
      5 C24         13.4450    12.3860    15.5320 ca         1 X68      -0.084500
      6 C02         12.9920    11.2340    16.1590 ca         1 X68      -0.000900
      7 C03         13.0290     9.9990    15.5270 ca         1 X68      -0.084500
      8 C04         13.5370     9.9220    14.2370 ca         1 X68      -0.085000
      9 C05         14.0090    11.0610    13.5890 ca         1 X68      -0.108300
     10 C06         14.5720    10.9710    12.1780 c3         1 X68       0.101000
     11 C07         13.4260    10.8920    11.1730 c          1 X68       0.572100
     12 C12         16.6740     9.7360    12.4000 c          1 X68       0.581100
     13 C16         15.7930     7.2150    14.3590 ca         1 X68      -0.204000
     14 C18         14.2870     5.4780    15.1360 ca         1 X68      -0.195000
     15 C19         14.2990     4.9690    13.8470 ca         1 X68       0.210000
     16 C23         13.9560    12.2880    14.2420 ca         1 X68      -0.085000
     17 F20         13.5620     3.8570    13.5800 f          1 X68      -0.184000
     18 N08         13.0230    12.0570    10.6680 ns         1 X68      -0.360400
     19 N11         15.4020     9.8050    11.9750 ns         1 X68      -0.488900
     20 N14         16.4580     7.2750    12.0170 nu         1 X68      -0.992200
     21 O09         11.8850    12.0860     9.8710 oh         1 X68      -0.438100
     22 O10         12.8870     9.8290    10.8530 o          1 X68      -0.616100
     23 O22         17.2800    10.6830    12.8960 o          1 X68      -0.602100
     24 H1          18.0330     8.2420    13.0480 h1         1 X68       0.076200
     25 H2          17.9790     8.4710    11.3050 h1         1 X68       0.076200
     26 H3          15.0690     7.0510    16.3610 ha         1 X68       0.119000
     27 H4          14.9760     5.0880    11.8250 ha         1 X68       0.131000
     28 H5          13.4150    13.3400    16.0390 ha         1 X68       0.134500
     29 H6          12.6770     9.1100    16.0300 ha         1 X68       0.134500
     30 H7          13.5800     8.9600    13.7470 ha         1 X68       0.124000
     31 H8          15.1660    11.8640    11.9830 h1         1 X68       0.088700
     32 H9          16.3640     8.1040    14.5810 ha         1 X68       0.125000
     33 H10         13.7040     5.0040    15.9120 ha         1 X68       0.136000
     34 H11         14.3260    13.1790    13.7490 ha         1 X68       0.124000
     35 H12         13.3080    12.9710    10.9870 hn         1 X68       0.363500
     36 H13         14.9620     8.9630    11.6280 hn         1 X68       0.352500
     37 H14         16.5480     6.7420    11.1690 hn         1 X68       0.494000
     38 H15         11.6130    11.1470     9.8500 ho         1 X68       0.477000
     39 BR01        12.3120    11.3450    17.9470 br         1 X68      -0.104100
@<TRIPOS>BOND
     1     1    12 1   
     2     1    20 1   
     3     1    24 1   
     4     1    25 1   
     5     2     4 ar  
     6     2    13 ar  
     7     2    20 1   
     8     3    13 ar  
     9     3    14 ar  
    10     3    26 1   
    11     4    15 ar  
    12     4    27 1   
    13     5     6 ar  
    14     5    16 ar  
    15     5    28 1   
    16     6     7 ar  
    17     6    39 1   
    18     7     8 ar  
    19     7    29 1   
    20     8     9 ar  
    21     8    30 1   
    22     9    10 1   
    23     9    16 ar  
    24    10    11 1   
    25    10    19 1   
    26    10    31 1   
    27    11    18 1   
    28    11    22 2   
    29    12    19 1   
    30    12    23 2   
    31    13    32 1   
    32    14    15 ar  
    33    14    33 1   
    34    15    17 1   
    35    16    34 1   
    36    18    21 1   
    37    18    35 1   
    38    19    36 1   
    39    20    37 1   
    40    21    38 1   
@<TRIPOS>SUBSTRUCTURE
     1 X68         1 TEMP              0 ****  ****    0 ROOT
