@<TRIPOS>MOLECULE
X69
   36    37     1     0     0
SMALL
No Charge or Current Charge


@<TRIPOS>ATOM
      1 N01          1.1980     0.0970     0.2480 nu         1 X69      -0.946200
      2 N02         -0.7310    -3.6360    -0.4490 nt         1 X69      -0.592000
      3 N03          5.6160     0.9970     0.9670 nb         1 X69      -0.662000
      4 N04         -4.4440    -0.0450    -0.1890 no         1 X69       0.715200
      5 C05         -2.2400    -1.2070    -0.1680 ca         1 X69       0.062000
      6 C06         -0.8300    -1.2080    -0.0640 ca         1 X69      -0.297600
      7 C07         -0.1790     0.0260     0.1410 ca         1 X69       0.468000
      8 C08         -0.9080     1.2110     0.2560 ca         1 X69      -0.355000
      9 C09         -2.3070     1.2070     0.1520 ca         1 X69       0.292100
     10 C10         -2.9690    -0.0080    -0.0710 ca         1 X69      -0.308200
     11 C12          2.0530     1.1240    -0.3460 c3         1 X69       0.278100
     12 C13          3.5010     0.7100    -0.1940 ca         1 X69      -0.172300
     13 C14          4.3130     1.3170     0.7830 ca         1 X69       0.355900
     14 C15          6.1500     0.0450     0.1670 ca         1 X69       0.348900
     15 C16          5.4140    -0.6120    -0.8330 ca         1 X69      -0.164000
     16 C17          4.0640    -0.2780    -1.0230 ca         1 X69      -0.052000
     17 C18         -2.4490     3.6480     0.5290 c3         1 X69       0.145900
     18 O19          1.1500    -2.5830    -0.0150 o          1 X69      -0.644100
     19 O20         -5.0330    -0.9930     0.3450 o          1 X69      -0.414000
     20 O21         -4.9800     0.7300    -0.9910 o          1 X69      -0.414000
     21 O22         -3.0500     2.3620     0.2980 os         1 X69      -0.295100
     22 HN01         1.6030    -0.8480     0.2370 hn         1 X69       0.543000
     23 H102        -1.7270    -3.6220    -0.5960 hn         1 X69       0.320000
     24 H202        -0.2170    -4.5010    -0.5190 hn         1 X69       0.320000
     25 H05         -2.7890    -2.1340    -0.3300 ha         1 X69       0.147000
     26 H08         -0.3740     2.1350     0.4420 ha         1 X69       0.127000
     27 H112         1.8210     1.2390    -1.4140 h1         1 X69       0.052200
     28 H212         1.8880     2.0960     0.1400 h1         1 X69       0.052200
     29 H14          3.9110     2.0860     1.4420 h4         1 X69       0.020100
     30 H15          7.2000    -0.1980     0.3330 h4         1 X69       0.023100
     31 H16          5.8910    -1.3700    -1.4490 ha         1 X69       0.129000
     32 H17          3.4720    -0.7710    -1.7920 ha         1 X69       0.125000
     33 H118        -3.2230     4.4210     0.6040 h1         1 X69       0.051367
     34 H218        -1.8770     3.6490     1.4650 h1         1 X69       0.051367
     35 H318        -1.7780     3.9190    -0.2960 h1         1 X69       0.051367
     36 C11         -0.0570    -2.5030    -0.1730 c          1 X69       0.638700
@<TRIPOS>BOND
     1     1     7 1   
     2     1    11 1   
     3     1    22 1   
     4     2    23 1   
     5     2    24 1   
     6     2    36 1   
     7     3    13 ar  
     8     3    14 ar  
     9     4    10 1   
    10     4    19 1   
    11     4    20 1   
    12     5     6 ar  
    13     5    10 ar  
    14     5    25 1   
    15     6     7 ar  
    16     6    36 1   
    17     7     8 ar  
    18     8     9 ar  
    19     8    26 1   
    20     9    10 ar  
    21     9    21 1   
    22    11    12 1   
    23    11    27 1   
    24    11    28 1   
    25    12    13 ar  
    26    12    16 ar  
    27    13    29 1   
    28    14    15 ar  
    29    14    30 1   
    30    15    16 ar  
    31    15    31 1   
    32    16    32 1   
    33    17    21 1   
    34    17    33 1   
    35    17    34 1   
    36    17    35 1   
    37    18    36 2   
@<TRIPOS>SUBSTRUCTURE
     1 X69         1 TEMP              0 ****  ****    0 ROOT
