@<TRIPOS>MOLECULE
X69
   36    37     1     0     0
SMALL
bcc


@<TRIPOS>ATOM
      1 N01          1.1880    -0.0720     0.1740 nu         1 X69      -0.752600
      2 N02         -0.8680    -3.6630    -0.3800 nt         1 X69      -0.659000
      3 N03          5.6650     0.7100     0.9910 nb         1 X69      -0.662000
      4 N04         -4.3870    -0.0870    -0.1080 no         1 X69       0.335200
      5 C05         -2.2620    -1.2210     0.0060 ca         1 X69       0.044000
      6 C06         -0.8880    -1.2920     0.0590 ca         1 X69      -0.297600
      7 C07         -0.1500    -0.0690     0.1010 ca         1 X69       0.329600
      8 C08         -0.8570     1.1440     0.0390 ca         1 X69      -0.373000
      9 C09         -2.2380     1.2000    -0.0430 ca         1 X69       0.292100
     10 C10         -2.9610    -0.0210    -0.0510 ca         1 X69      -0.308200
     11 C12          2.0100     1.1160     0.2080 c3         1 X69       0.278100
     12 C13          3.4560     0.7440     0.0590 ca         1 X69      -0.237600
     13 C14          4.3730     1.0050     1.0690 ca         1 X69       0.421200
     14 C15          6.1010     0.1260    -0.1170 ca         1 X69       0.414200
     15 C16          5.2730    -0.1870    -1.1880 ca         1 X69      -0.247300
     16 C17          3.9290     0.1290    -1.0960 ca         1 X69      -0.070000
     17 C18         -2.1880     3.5710    -0.0100 c3         1 X69       0.122700
     18 O19          0.9360    -2.7260     0.5710 o          1 X69      -0.644100
     19 O20         -4.9200    -1.1640     0.0930 o          1 X69      -0.224000
     20 O21         -5.0210     0.9150    -0.3610 o          1 X69      -0.224000
     21 O22         -2.9020     2.3450    -0.0780 os         1 X69      -0.271900
     22 HN01         1.6130    -0.9610     0.4030 hn         1 X69       0.487800
     23 H102        -1.7050    -3.5750    -0.9290 hn         1 X69       0.320000
     24 H202        -0.4290    -4.5700    -0.3660 hn         1 X69       0.320000
     25 H05         -2.8430    -2.1320     0.0190 ha         1 X69       0.165000
     26 H08         -0.2950     2.0640     0.0850 ha         1 X69       0.145000
     27 H112         1.7290     1.7810    -0.6140 h1         1 X69       0.052200
     28 H212         1.8610     1.6790     1.1360 h1         1 X69       0.052200
     29 H14          4.0400     1.4820     1.9870 h4         1 X69       0.020100
     30 H15          7.1600    -0.1060    -0.1610 h4         1 X69       0.023100
     31 H16          5.6780    -0.6620    -2.0700 ha         1 X69       0.147000
     32 H17          3.2550    -0.0930    -1.9140 ha         1 X69       0.143000
     33 H118        -2.9380     4.3550    -0.0520 h1         1 X69       0.051367
     34 H218        -1.6300     3.6590     0.9240 h1         1 X69       0.051367
     35 H318        -1.5050     3.6860    -0.8530 h1         1 X69       0.051367
     36 C11         -0.1970    -2.6080     0.1040 c          1 X69       0.705700
@<TRIPOS>BOND
     1     1     7 1   
     2     1    11 1   
     3     1    22 1   
     4     2    23 1   
     5     2    24 1   
     6     2    36 1   
     7     3    13 ar  
     8     3    14 ar  
     9     4    10 1   
    10     4    19 1   
    11     4    20 1   
    12     5     6 ar  
    13     5    10 ar  
    14     5    25 1   
    15     6     7 ar  
    16     6    36 1   
    17     7     8 ar  
    18     8     9 ar  
    19     8    26 1   
    20     9    10 ar  
    21     9    21 1   
    22    11    12 1   
    23    11    27 1   
    24    11    28 1   
    25    12    13 ar  
    26    12    16 ar  
    27    13    29 1   
    28    14    15 ar  
    29    14    30 1   
    30    15    16 ar  
    31    15    31 1   
    32    16    32 1   
    33    17    21 1   
    34    17    33 1   
    35    17    34 1   
    36    17    35 1   
    37    18    36 2   
@<TRIPOS>SUBSTRUCTURE
     1 X69         1 TEMP              0 ****  ****    0 ROOT
