@<TRIPOS>MOLECULE
X6A
   33    34     1     0     0
SMALL
No Charge or Current Charge


@<TRIPOS>ATOM
      1 N01          0.9020     0.1330     0.3080 nu         1 X6A      -0.940200
      2 N02         -0.9140    -3.6750    -0.3190 nt         1 X6A      -0.590000
      3 N03          5.1160    -0.1830    -1.0770 nb         1 X6A      -0.244500
      4 N04          5.1900     0.7050     1.1590 nb         1 X6A      -0.244500
      5 N05         -4.7540    -0.2200    -0.0110 no         1 X6A       0.712200
      6 N06          7.0260    -0.2580     0.1850 nv         1 X6A      -1.053900
      7 C07         -2.5040    -1.2980    -0.0360 ca         1 X6A       0.040000
      8 C08         -1.0900    -1.2450     0.0380 ca         1 X6A      -0.271600
      9 C09         -0.4770     0.0140     0.2280 ca         1 X6A       0.442000
     10 C10         -1.2550     1.1700     0.3560 ca         1 X6A      -0.248000
     11 C11         -2.6480     1.1110     0.2820 ca         1 X6A       0.253000
     12 C12         -3.2790    -0.1260     0.0760 ca         1 X6A      -0.274200
     13 C14          1.7070     1.2230    -0.2250 c3         1 X6A       0.297100
     14 C15          3.1540     0.8150    -0.1130 ca         1 X6A      -0.308300
     15 C16          3.8210     0.1780    -1.1750 ca         1 X6A       0.179900
     16 C17          5.7220     0.1020     0.0860 ca         1 X6A       0.389900
     17 C18          3.8950     1.0640     1.0570 ca         1 X6A       0.179900
     18 O19          0.9440    -2.5460     0.0170 o          1 X6A      -0.637100
     19 O20         -5.2980    -1.1640     0.5740 o          1 X6A      -0.403500
     20 O21         -5.3280     0.4950    -0.8410 o          1 X6A      -0.403500
     21 Cl22        -3.5560     2.6070     0.5060 cl         1 X6A      -0.136000
     22 HN01         1.3540    -0.7890     0.2660 hn         1 X6A       0.543000
     23 H102        -1.9150    -3.7020    -0.4180 hn         1 X6A       0.321000
     24 H202        -0.3710    -4.5210    -0.4000 hn         1 X6A       0.321000
     25 H106         7.5790     0.1330     0.9450 hn         1 X6A       0.502000
     26 H206         7.5300    -0.5070    -0.6630 hn         1 X6A       0.502000
     27 H07         -3.0210    -2.2440    -0.1860 ha         1 X6A       0.145000
     28 H10         -0.7810     2.1300     0.5300 ha         1 X6A       0.138000
     29 H114         1.4540     1.4070    -1.2790 h1         1 X6A       0.053200
     30 H214         1.5330     2.1510     0.3370 h1         1 X6A       0.053200
     31 H16          3.3170    -0.0480    -2.1140 h4         1 X6A       0.024600
     32 H18          3.4500     1.5540     1.9220 h4         1 X6A       0.024600
     33 C13         -0.2720    -2.5130    -0.0870 c          1 X6A       0.634700
@<TRIPOS>BOND
     1     1     9 1   
     2     1    13 1   
     3     1    22 1   
     4     2    23 1   
     5     2    24 1   
     6     2    33 1   
     7     3    15 ar  
     8     3    16 ar  
     9     4    16 ar  
    10     4    17 ar  
    11     5    12 1   
    12     5    19 1   
    13     5    20 1   
    14     6    16 1   
    15     6    25 1   
    16     6    26 1   
    17     7     8 ar  
    18     7    12 ar  
    19     7    27 1   
    20     8     9 ar  
    21     8    33 1   
    22     9    10 ar  
    23    10    11 ar  
    24    10    28 1   
    25    11    12 ar  
    26    11    21 1   
    27    13    14 1   
    28    13    29 1   
    29    13    30 1   
    30    14    15 ar  
    31    14    17 ar  
    32    15    31 1   
    33    17    32 1   
    34    18    33 2   
@<TRIPOS>SUBSTRUCTURE
     1 X6A         1 TEMP              0 ****  ****    0 ROOT
