@<TRIPOS>MOLECULE
X6A
   33    34     1     0     0
SMALL
abcg2


@<TRIPOS>ATOM
      1 N01          0.9080    -0.0540     0.0840 nu         1 X6A      -0.940200
      2 N02         -1.0780    -3.7080    -0.2930 nt         1 X6A      -0.590000
      3 N03          5.1040     0.1070    -1.1580 nb         1 X6A      -0.244500
      4 N04          5.2200     0.6320     1.1590 nb         1 X6A      -0.244500
      5 N05         -4.6810    -0.2130     0.0390 no         1 X6A       0.712200
      6 N06          7.0600    -0.1170     0.0150 nv         1 X6A      -1.053900
      7 C07         -2.5220    -1.2980     0.1150 ca         1 X6A       0.040000
      8 C08         -1.1450    -1.3310     0.0980 ca         1 X6A      -0.271600
      9 C09         -0.4270    -0.0980     0.0530 ca         1 X6A       0.442000
     10 C10         -1.1740     1.0950    -0.0430 ca         1 X6A      -0.248000
     11 C11         -2.5480     1.0960    -0.0630 ca         1 X6A       0.253000
     12 C12         -3.2480    -0.1160     0.0300 ca         1 X6A      -0.274200
     13 C14          1.6890     1.1640    -0.0050 c3         1 X6A       0.297100
     14 C15          3.1480     0.8410    -0.0050 ca         1 X6A      -0.308300
     15 C16          3.8210     0.4140    -1.1440 ca         1 X6A       0.179900
     16 C17          5.7600     0.2240     0.0040 ca         1 X6A       0.389900
     17 C18          3.9340     0.9290     1.1360 ca         1 X6A       0.179900
     18 O19          0.7240    -2.7070     0.6020 o          1 X6A      -0.637100
     19 O20         -5.1760    -1.2110     0.5200 o          1 X6A      -0.403500
     20 O21         -5.3290     0.6870    -0.4430 o          1 X6A      -0.403500
     21 CL22        -3.3120     2.6350    -0.1110 cl         1 X6A      -0.136000
     22 HN01         1.3810    -0.9200     0.3030 hn         1 X6A       0.543000
     23 H102        -1.9320    -3.6480    -0.8180 hn         1 X6A       0.321000
     24 H202        -0.6220    -4.6070    -0.2700 hn         1 X6A       0.321000
     25 H106         7.6230     0.1220     0.8120 hn         1 X6A       0.502000
     26 H206         7.5340    -0.2750    -0.8570 hn         1 X6A       0.502000
     27 H07         -3.0760    -2.2230     0.1960 ha         1 X6A       0.145000
     28 H10         -0.6610     2.0450    -0.0790 ha         1 X6A       0.138000
     29 H114         1.4240     1.7030    -0.9190 h1         1 X6A       0.053200
     30 H214         1.4610     1.8320     0.8320 h1         1 X6A       0.053200
     31 H16          3.2940     0.3230    -2.0900 h4         1 X6A       0.024600
     32 H18          3.4990     1.2630     2.0730 h4         1 X6A       0.024600
     33 C13         -0.4200    -2.6330     0.1560 c          1 X6A       0.634700
@<TRIPOS>BOND
     1     1     9 1   
     2     1    13 1   
     3     1    22 1   
     4     2    23 1   
     5     2    24 1   
     6     2    33 1   
     7     3    15 ar  
     8     3    16 ar  
     9     4    16 ar  
    10     4    17 ar  
    11     5    12 1   
    12     5    19 1   
    13     5    20 1   
    14     6    16 1   
    15     6    25 1   
    16     6    26 1   
    17     7     8 ar  
    18     7    12 ar  
    19     7    27 1   
    20     8     9 ar  
    21     8    33 1   
    22     9    10 ar  
    23    10    11 ar  
    24    10    28 1   
    25    11    12 ar  
    26    11    21 1   
    27    13    14 1   
    28    13    29 1   
    29    13    30 1   
    30    14    15 ar  
    31    14    17 ar  
    32    15    31 1   
    33    17    32 1   
    34    18    33 2   
@<TRIPOS>SUBSTRUCTURE
     1 X6A         1 TEMP              0 ****  ****    0 ROOT
