@<TRIPOS>MOLECULE
X6B
   41    43     1     0     0
SMALL
abcg2


@<TRIPOS>ATOM
      1 N01         -0.3780     0.8780     0.0250 nc         1 X6B      -0.784000
      2 N02         -1.4620    -1.1980    -0.2210 nu         1 X6B      -0.919900
      3 N03          4.1680    -0.3420     0.0310 ns         1 X6B      -0.141000
      4 N04          1.0270     2.7050     0.2250 nv         1 X6B      -1.035900
      5 N05         -7.7380    -0.1610     1.5360 n8         1 X6B      -0.993100
      6 C06          1.9100     0.4410     0.0090 cd         1 X6B      -0.452600
      7 C07          0.8870     1.3790     0.0990 cc         1 X6B       0.686900
      8 C08         -0.3710    -0.4100    -0.1200 cd         1 X6B       0.771300
      9 C09         -2.8060    -0.8520    -0.1830 ca         1 X6B       0.357000
     10 C10          3.3180     0.7300     0.1060 c          1 X6B       0.685700
     11 C11         -3.7220    -1.9050    -0.2980 ca         1 X6B      -0.173500
     12 C12         -5.0790    -1.6650    -0.2690 ca         1 X6B       0.016000
     13 C13         -5.5420    -0.3620    -0.1210 ca         1 X6B      -0.354500
     14 C14         -4.6450     0.6900    -0.0140 ca         1 X6B       0.016000
     15 C15         -3.2810     0.4550    -0.0430 ca         1 X6B      -0.173500
     16 C16          5.5570    -0.3690     0.1220 ca         1 X6B       0.016000
     17 C17          6.1600    -1.6330     0.1040 ca         1 X6B      -0.194000
     18 C18          7.5350    -1.7580     0.1850 ca         1 X6B      -0.055000
     19 C19          8.3530    -0.6400     0.2870 ca         1 X6B      -0.183000
     20 C20          7.7330     0.5910     0.3010 ca         1 X6B       0.198000
     21 C21          6.3640     0.7660     0.2210 ca         1 X6B      -0.180000
     22 O22          3.7240     1.8820     0.2550 o          1 X6B      -0.624100
     23 O23         -7.9570    -1.1430    -0.7310 o          1 X6B      -0.529500
     24 O24         -7.5150     1.3210    -0.4420 o          1 X6B      -0.529500
     25 F25          8.4930     1.6960     0.3970 f          1 X6B      -0.179000
     26 S26          1.1970    -1.1490    -0.1890 ss         1 X6B      -0.102400
     27 S27         -7.2810    -0.0560    -0.0410 sy         1 X6B       1.145600
     28 HN02        -1.2860    -2.1870    -0.3270 hn         1 X6B       0.512000
     29 HN03         3.7580    -1.2560    -0.0790 hn         1 X6B       0.148000
     30 HN04         0.2180     3.2520     0.4670 hn         1 X6B       0.513500
     31 HN0A         1.9370     3.0830     0.4230 hn         1 X6B       0.513500
     32 HN05        -7.3200     0.5470     2.1290 hn         1 X6B       0.473500
     33 HN0B        -7.6160    -1.0860     1.9310 hn         1 X6B       0.473500
     34 H11         -3.3660    -2.9210    -0.4170 ha         1 X6B       0.137500
     35 H12         -5.7640    -2.4970    -0.3640 ha         1 X6B       0.138000
     36 H14         -4.9950     1.7080     0.0900 ha         1 X6B       0.138000
     37 H15         -2.5980     1.2830     0.0380 ha         1 X6B       0.137500
     38 H17          5.5450    -2.5210     0.0260 ha         1 X6B       0.111000
     39 H18          7.9780    -2.7450     0.1710 ha         1 X6B       0.116000
     40 H19          9.4290    -0.7270     0.3520 ha         1 X6B       0.134000
     41 H21          5.9520     1.7610     0.2360 ha         1 X6B       0.166000
@<TRIPOS>BOND
     1     1     7 1   
     2     1     8 2   
     3     2     8 1   
     4     2     9 1   
     5     2    28 1   
     6     3    10 1   
     7     3    16 1   
     8     3    29 1   
     9     4     7 1   
    10     4    30 1   
    11     4    31 1   
    12     5    27 1   
    13     5    32 1   
    14     5    33 1   
    15     6     7 2   
    16     6    10 1   
    17     6    26 1   
    18     8    26 1   
    19     9    11 ar  
    20     9    15 ar  
    21    10    22 2   
    22    11    12 ar  
    23    11    34 1   
    24    12    13 ar  
    25    12    35 1   
    26    13    14 ar  
    27    13    27 1   
    28    14    15 ar  
    29    14    36 1   
    30    15    37 1   
    31    16    17 ar  
    32    16    21 ar  
    33    17    18 ar  
    34    17    38 1   
    35    18    19 ar  
    36    18    39 1   
    37    19    20 ar  
    38    19    40 1   
    39    20    21 ar  
    40    20    25 1   
    41    21    41 1   
    42    23    27 2   
    43    24    27 2   
@<TRIPOS>SUBSTRUCTURE
     1 X6B         1 TEMP              0 ****  ****    0 ROOT
