@<TRIPOS>MOLECULE
X6C
   43    45     1     0     0
SMALL
bcc


@<TRIPOS>ATOM
      1 CAA          5.9480     0.9260     1.4590 c3         1 X6C      -0.172100
      2 CAQ          4.8140     1.0130     0.4700 c          1 X6C       0.683100
      3 OAB          4.5370     2.0490    -0.1240 o          1 X6C      -0.604100
      4 N            4.1140    -0.1140     0.2560 n          1 X6C      -0.465800
      5 CD2          4.3650    -1.4230     0.8350 c5         1 X6C       0.072000
      6 CG           3.7360    -2.3660    -0.1850 c5         1 X6C       0.130100
      7 OD1          4.5540    -2.5440    -1.3180 oh         1 X6C      -0.589800
      8 CB           2.5100    -1.5790    -0.6190 c5         1 X6C      -0.085400
      9 CA           3.0080    -0.1250    -0.6770 c5         1 X6C       0.035700
     10 C            1.9050     0.8290    -0.2440 c          1 X6C       0.666100
     11 O            1.6580     1.0470     0.9290 o          1 X6C      -0.582100
     12 NAO          1.1830     1.3380    -1.2560 ns         1 X6C      -0.571900
     13 CAK          0.0280     2.1680    -1.0370 c3         1 X6C       0.150300
     14 CAS         -1.2200     1.4220    -0.6280 ca         1 X6C      -0.079300
     15 CAF         -1.3280     0.0390    -0.6870 ca         1 X6C      -0.123000
     16 CAH         -2.5010    -0.6040    -0.3180 ca         1 X6C      -0.101000
     17 CAE         -2.3260     2.1510    -0.1920 ca         1 X6C      -0.123000
     18 CAG         -3.5000     1.5210     0.1710 ca         1 X6C      -0.101000
     19 CAT         -3.6040     0.1270     0.1180 ca         1 X6C      -0.123500
     20 CAU         -4.8420    -0.5180     0.5140 cc         1 X6C       0.209900
     21 OAP         -4.9500    -1.8650     0.3830 os         1 X6C      -0.349800
     22 CAI         -6.1720    -2.1750     0.8270 cc         1 X6C       0.475300
     23 NAN         -6.8530    -1.1610     1.2280 nd         1 X6C      -0.673000
     24 CAJ         -6.0170    -0.0840     1.0370 cd         1 X6C       0.233900
     25 HAA1         6.3280     1.9230     1.6680 hc         1 X6C       0.060367
     26 HAA2         5.6380     0.4630     2.3950 hc         1 X6C       0.060367
     27 HAA3         6.7660     0.3260     1.0550 hc         1 X6C       0.060367
     28 HD21         5.4300    -1.6130     0.9750 h1         1 X6C       0.054700
     29 HD22         3.8740    -1.5340     1.8060 h1         1 X6C       0.054700
     30 HA           3.3520     0.1270    -1.6850 h1         1 X6C       0.078700
     31 HG           3.4670    -3.3230     0.2750 h1         1 X6C       0.052700
     32 HD1          5.3660    -2.9820    -1.0450 ho         1 X6C       0.406000
     33 HB1C         2.0990    -1.9170    -1.5700 hc         1 X6C       0.070200
     34 HB2C         1.7330    -1.6900     0.1410 hc         1 X6C       0.070200
     35 HAO          1.4520     1.1330    -2.2040 hn         1 X6C       0.318500
     36 HAK1         0.2580     2.9220    -0.2820 h1         1 X6C       0.064700
     37 HAK2        -0.1650     2.7110    -1.9630 h1         1 X6C       0.064700
     38 HAF         -0.4940    -0.5580    -1.0320 ha         1 X6C       0.132000
     39 HAE         -2.2690     3.2320    -0.1380 ha         1 X6C       0.132000
     40 HAH         -2.5410    -1.6840    -0.3730 ha         1 X6C       0.138000
     41 HAG         -4.3410     2.1190     0.4970 ha         1 X6C       0.138000
     42 HAJ         -6.3160     0.9210     1.2860 h4         1 X6C       0.049100
     43 HAI         -6.4630    -3.2140     0.8080 h5         1 X6C       0.083100
@<TRIPOS>BOND
     1     1     2 1   
     2     1    25 1   
     3     1    26 1   
     4     1    27 1   
     5     2     3 2   
     6     2     4 1   
     7     4     5 1   
     8     4     9 1   
     9     5     6 1   
    10     5    28 1   
    11     5    29 1   
    12     6     7 1   
    13     6     8 1   
    14     6    31 1   
    15     7    32 1   
    16     8     9 1   
    17     8    33 1   
    18     8    34 1   
    19     9    10 1   
    20     9    30 1   
    21    10    11 2   
    22    10    12 1   
    23    12    13 1   
    24    12    35 1   
    25    13    14 1   
    26    13    36 1   
    27    13    37 1   
    28    14    15 ar  
    29    14    17 ar  
    30    15    16 ar  
    31    15    38 1   
    32    16    19 ar  
    33    16    40 1   
    34    17    18 ar  
    35    17    39 1   
    36    18    19 ar  
    37    18    41 1   
    38    19    20 1   
    39    20    21 1   
    40    20    24 2   
    41    21    22 1   
    42    22    23 2   
    43    22    43 1   
    44    23    24 1   
    45    24    42 1   
@<TRIPOS>SUBSTRUCTURE
     1 X6C         1 TEMP              0 ****  ****    0 ROOT
