@<TRIPOS>MOLECULE
X6C
   43    45     1     0     0
SMALL
No Charge or Current Charge


@<TRIPOS>ATOM
      1 CAA          6.2060     1.2880     1.3740 c3         1 X6C      -0.172100
      2 CAQ          5.0430     1.2110     0.3830 c          1 X6C       0.616100
      3 OAB          4.8200     2.1350    -0.3880 o          1 X6C      -0.604100
      4 N            4.2220     0.0640     0.4000 n          1 X6C      -0.398800
      5 CD2          4.5850    -1.1970     1.0930 c5         1 X6C       0.072000
      6 CG           3.6740    -2.2520     0.3950 c5         1 X6C       0.153300
      7 OD1          4.2560    -2.7690    -0.8080 oh         1 X6C      -0.652000
      8 CB           2.4120    -1.4090     0.0890 c5         1 X6C      -0.085400
      9 CA           3.0070    -0.0720    -0.4520 c5         1 X6C       0.035700
     10 C            1.9300     1.0460    -0.2750 c          1 X6C       0.599100
     11 O            1.7940     1.8090     0.6740 o          1 X6C      -0.582100
     12 NAO          1.1040     1.0600    -1.3800 ns         1 X6C      -0.504900
     13 CAK         -0.0570     1.9370    -1.5340 c3         1 X6C       0.150300
     14 CAS         -1.3270     1.2610    -1.0380 ca         1 X6C      -0.079300
     15 CAF         -2.1080     0.4850    -1.9130 ca         1 X6C      -0.105000
     16 CAH         -3.2760    -0.1460    -1.4530 ca         1 X6C      -0.083000
     17 CAE         -1.7270     1.3950     0.3030 ca         1 X6C      -0.105000
     18 CAG         -2.8950     0.7640     0.7660 ca         1 X6C      -0.083000
     19 CAT         -3.6850    -0.0140    -0.1090 ca         1 X6C      -0.123500
     20 CAU         -4.9090    -0.6820     0.3540 cc         1 X6C       0.165500
     21 OAP         -5.6870    -1.4370    -0.4590 os         1 X6C      -0.261000
     22 CAI         -6.6900    -1.8480     0.3730 cc         1 X6C       0.430900
     23 NAN         -6.5860    -1.4060     1.6260 nd         1 X6C      -0.673000
     24 CAJ         -5.4300    -0.6460     1.6220 cd         1 X6C       0.233900
     25 HAA1         6.6970     2.2670     1.3690 hc         1 X6C       0.060367
     26 HAA2         5.8530     1.0120     2.3740 hc         1 X6C       0.060367
     27 HAA3         6.9230     0.4930     1.1430 hc         1 X6C       0.060367
     28 HD21         5.6490    -1.4460     0.9850 h1         1 X6C       0.054700
     29 HD22         4.3560    -1.1240     2.1650 h1         1 X6C       0.054700
     30 HA           3.2890    -0.1480    -1.5100 h1         1 X6C       0.078700
     31 HG           3.4380    -3.0810     1.0770 h1         1 X6C       0.052700
     32 HD1          5.0320    -3.3100    -0.5430 ho         1 X6C       0.445000
     33 HB1C         1.7410    -1.8930    -0.6290 hc         1 X6C       0.070200
     34 HB2C         1.8330    -1.2450     1.0070 hc         1 X6C       0.070200
     35 HAO          1.2950     0.3840    -2.1100 hn         1 X6C       0.318500
     36 HAK1         0.1090     2.8730    -0.9840 h1         1 X6C       0.064700
     37 HAK2        -0.1660     2.1940    -2.5960 h1         1 X6C       0.064700
     38 HAF         -1.8090     0.3680    -2.9530 ha         1 X6C       0.114000
     39 HAE         -1.1290     1.9870     0.9920 ha         1 X6C       0.114000
     40 HAH         -3.8630    -0.7410    -2.1510 ha         1 X6C       0.120000
     41 HAG         -3.1750     0.8890     1.8090 ha         1 X6C       0.120000
     42 HAJ         -5.0620    -0.1400     2.5050 h4         1 X6C       0.049100
     43 HAI         -7.4680    -2.4820    -0.0370 h5         1 X6C       0.083100
@<TRIPOS>BOND
     1     1     2 1   
     2     1    25 1   
     3     1    26 1   
     4     1    27 1   
     5     2     3 2   
     6     2     4 1   
     7     4     5 1   
     8     4     9 1   
     9     5     6 1   
    10     5    28 1   
    11     5    29 1   
    12     6     7 1   
    13     6     8 1   
    14     6    31 1   
    15     7    32 1   
    16     8     9 1   
    17     8    33 1   
    18     8    34 1   
    19     9    10 1   
    20     9    30 1   
    21    10    11 2   
    22    10    12 1   
    23    12    13 1   
    24    12    35 1   
    25    13    14 1   
    26    13    36 1   
    27    13    37 1   
    28    14    15 ar  
    29    14    17 ar  
    30    15    16 ar  
    31    15    38 1   
    32    16    19 ar  
    33    16    40 1   
    34    17    18 ar  
    35    17    39 1   
    36    18    19 ar  
    37    18    41 1   
    38    19    20 1   
    39    20    21 1   
    40    20    24 2   
    41    21    22 1   
    42    22    23 2   
    43    22    43 1   
    44    23    24 1   
    45    24    42 1   
@<TRIPOS>SUBSTRUCTURE
     1 X6C         1 TEMP              0 ****  ****    0 ROOT
