@<TRIPOS>MOLECULE
X6D
   67    72     1     0     0
SMALL
No Charge or Current Charge


@<TRIPOS>ATOM
      1 CAN         -8.2040     1.4020    -0.5200 c6         1 X6D       0.127800
      2 CAL         -8.9370     0.6200     0.6120 c6         1 X6D       0.153100
      3 OAY         -8.7670     1.2960     1.8820 os         1 X6D      -0.448000
      4 CAM         -7.3740     1.4480     2.2500 c6         1 X6D       0.153100
      5 CAO         -6.6070     2.2460     1.1540 c6         1 X6D       0.127800
      6 NBI         -6.7590     1.6190    -0.1980 n3         1 X6D      -0.723600
      7 CAT         -6.0390     2.3470    -1.2710 c3         1 X6D       0.213100
      8 CBB         -4.5310     2.4260    -1.0440 ca         1 X6D      -0.068300
      9 CAG         -3.7420     1.2640    -1.1150 ca         1 X6D      -0.104000
     10 CAI         -2.3540     1.3300    -0.9050 ca         1 X6D      -0.084000
     11 CAH         -3.9120     3.6570    -0.7590 ca         1 X6D      -0.104000
     12 CAJ         -2.5240     3.7270    -0.5480 ca         1 X6D      -0.084000
     13 CBD         -1.7240     2.5630    -0.6190 ca         1 X6D      -0.118900
     14 CBE         -0.2700     2.6200    -0.3990 cc         1 X6D       0.479400
     15 NAX          0.4330     3.7830    -0.1130 na         1 X6D      -0.409300
     16 NAW          0.5590     1.5650    -0.4450 nd         1 X6D      -0.574100
     17 CBH          1.8210     2.1200    -0.1700 ca         1 X6D      -0.014600
     18 CBG          1.7400     3.4770     0.0280 ca         1 X6D       0.364500
     19 NAV          2.7800     4.2790     0.2940 nb         1 X6D      -0.683000
     20 CAK          3.9970     3.6860     0.3690 ca         1 X6D       0.400900
     21 CBC          4.1970     2.3050     0.1830 ca         1 X6D      -0.139900
     22 Br           5.9760     1.5840     0.3270 br         1 X6D      -0.082100
     23 CBF          3.0850     1.4840    -0.0920 ca         1 X6D       0.413000
     24 NBK          3.2560     0.0890    -0.2890 nh         1 X6D      -0.793400
     25 CAR          3.6190    -0.4080    -1.6530 c6         1 X6D       0.169800
     26 CAP          4.1550    -1.8800    -1.6370 c6         1 X6D       0.158300
     27 CAS          2.4280    -0.8790     0.5000 c6         1 X6D       0.169800
     28 CAQ          3.0120    -2.3290     0.4640 c6         1 X6D       0.158300
     29 NBJ          3.2410    -2.8310    -0.9300 n3         1 X6D      -0.717600
     30 CAU          1.9900    -3.1020    -1.6860 c3         1 X6D       0.210100
     31 CBA          1.0880    -4.1340    -1.0160 ca         1 X6D      -0.085300
     32 CAE         -0.1590    -3.7520    -0.4810 ca         1 X6D      -0.090000
     33 CAC         -0.9860    -4.7060     0.1400 ca         1 X6D      -0.107000
     34 CAZ         -0.5690    -6.0440     0.2290 ca         1 X6D       0.121000
     35 Cl          -1.6030    -7.2350     1.0070 cl         1 X6D      -0.208000
     36 CAD          0.6720    -6.4320    -0.3010 ca         1 X6D      -0.107000
     37 CAF          1.4990    -5.4790    -0.9220 ca         1 X6D      -0.090000
     38 HAN1        -8.3060     0.8400    -1.4590 h1         1 X6D       0.042700
     39 HAN2        -8.7120     2.3670    -0.6650 h1         1 X6D       0.042700
     40 HAL1       -10.0090     0.5470     0.3830 h1         1 X6D       0.051700
     41 HAL2        -8.5320    -0.4000     0.6870 h1         1 X6D       0.051700
     42 HAM1        -7.3110     1.9770     3.2110 h1         1 X6D       0.051700
     43 HAM2        -6.9220     0.4540     2.3760 h1         1 X6D       0.051700
     44 HAO1        -6.9850     3.2790     1.1410 h1         1 X6D       0.042700
     45 HAO2        -5.5460     2.2960     1.4400 h1         1 X6D       0.042700
     46 HAT1        -6.2060     1.8460    -2.2340 h1         1 X6D       0.042700
     47 HAT2        -6.4430     3.3640    -1.3710 h1         1 X6D       0.042700
     48 HAG         -4.2100     0.3060    -1.3300 ha         1 X6D       0.125000
     49 HAH         -4.5090     4.5650    -0.6970 ha         1 X6D       0.125000
     50 HAI         -1.7700     0.4140    -0.9650 ha         1 X6D       0.122000
     51 HAJ         -2.0810     4.6950    -0.3290 ha         1 X6D       0.122000
     52 HAX          0.0400     4.7050    -0.0260 hn         1 X6D       0.371000
     53 HAK          4.8390     4.3410     0.5870 h4         1 X6D       0.036100
     54 HAR1         2.7400    -0.3530    -2.3130 h1         1 X6D       0.052200
     55 HAR2         4.3930     0.2350    -2.0970 h1         1 X6D       0.052200
     56 HAS1         2.3670    -0.5550     1.5490 h1         1 X6D       0.052200
     57 HAS2         1.4010    -0.9070     0.1100 h1         1 X6D       0.052200
     58 HAP1         4.3330    -2.2080    -2.6720 h1         1 X6D       0.064450
     59 HAP2         5.1370    -1.8750    -1.1410 h1         1 X6D       0.064450
     60 HAQ1         3.9650    -2.3220     1.0140 h1         1 X6D       0.064450
     61 HAQ2         2.3420    -2.9990     1.0220 h1         1 X6D       0.064450
     62 HAU1         1.4190    -2.1760    -1.8340 h1         1 X6D       0.040700
     63 HAU2         2.2420    -3.4760    -2.6880 h1         1 X6D       0.040700
     64 HAE         -0.4880    -2.7170    -0.5450 ha         1 X6D       0.123000
     65 HAF          2.4620    -5.7810    -1.3280 ha         1 X6D       0.123000
     66 HAC         -1.9470    -4.4080     0.5520 ha         1 X6D       0.128500
     67 HAD          0.9930    -7.4680    -0.2300 ha         1 X6D       0.128500
@<TRIPOS>BOND
     1     1     2 1   
     2     1     6 1   
     3     1    38 1   
     4     1    39 1   
     5     2     3 1   
     6     2    40 1   
     7     2    41 1   
     8     3     4 1   
     9     4     5 1   
    10     4    42 1   
    11     4    43 1   
    12     5     6 1   
    13     5    44 1   
    14     5    45 1   
    15     6     7 1   
    16     7     8 1   
    17     7    46 1   
    18     7    47 1   
    19     8     9 ar  
    20     8    11 ar  
    21     9    10 ar  
    22     9    48 1   
    23    10    13 ar  
    24    10    50 1   
    25    11    12 ar  
    26    11    49 1   
    27    12    13 ar  
    28    12    51 1   
    29    13    14 1   
    30    14    15 1   
    31    14    16 2   
    32    15    18 1   
    33    15    52 1   
    34    16    17 1   
    35    17    18 ar  
    36    17    23 ar  
    37    18    19 ar  
    38    19    20 ar  
    39    20    21 ar  
    40    20    53 1   
    41    21    22 1   
    42    21    23 ar  
    43    23    24 1   
    44    24    25 1   
    45    24    27 1   
    46    25    26 1   
    47    25    54 1   
    48    25    55 1   
    49    26    29 1   
    50    26    58 1   
    51    26    59 1   
    52    27    28 1   
    53    27    56 1   
    54    27    57 1   
    55    28    29 1   
    56    28    60 1   
    57    28    61 1   
    58    29    30 1   
    59    30    31 1   
    60    30    62 1   
    61    30    63 1   
    62    31    32 ar  
    63    31    37 ar  
    64    32    33 ar  
    65    32    64 1   
    66    33    34 ar  
    67    33    66 1   
    68    34    35 1   
    69    34    36 ar  
    70    36    37 ar  
    71    36    67 1   
    72    37    65 1   
@<TRIPOS>SUBSTRUCTURE
     1 X6D         1 TEMP              0 ****  ****    0 ROOT
