@<TRIPOS>MOLECULE
X6E
   24    23     1     0     0
SMALL
abcg2


@<TRIPOS>ATOM
      1 N           -0.6090     0.5720    -0.9400 n8         1 X6E      -0.994200
      2 CA          -1.5670    -0.2930    -1.6220 c3         1 X6E       0.037200
      3 C           -2.8020    -0.5410    -0.7120 c          1 X6E       0.726000
      4 O           -2.7120    -0.2190     0.4900 o          1 X6E      -0.730000
      5 CB1         -1.9840     0.3830    -2.9360 c3         1 X6E      -0.024400
      6 CB2         -0.9620    -1.6710    -1.9740 c3         1 X6E      -0.083400
      7 CG1         -2.6970     1.7210    -2.7950 c3         1 X6E      -0.069400
      8 CG2         -0.4850    -2.4940    -0.7850 c3         1 X6E      -0.079100
      9 CD1         -2.9960     2.3610    -4.1460 c3         1 X6E      -0.085100
     10 OXT         -3.7800    -1.0900    -1.2590 o          1 X6E      -0.730000
     11 H           -0.5320     0.2850     0.0260 hn         1 X6E       0.379000
     12 H2           0.3090     0.4610    -1.3570 hn         1 X6E       0.379000
     13 HB12        -2.6170    -0.3020    -3.5050 hc         1 X6E       0.012700
     14 HB11        -1.0810     0.5290    -3.5430 hc         1 X6E       0.012700
     15 HB21        -1.6940    -2.2490    -2.5420 hc         1 X6E       0.020700
     16 HB22        -0.1180    -1.5050    -2.6550 hc         1 X6E       0.020700
     17 HG12        -2.0870     2.4000    -2.1960 hc         1 X6E       0.054700
     18 HG11        -3.6350     1.5850    -2.2490 hc         1 X6E       0.054700
     19 HG21        -0.0280    -3.4260    -1.1190 hc         1 X6E       0.021033
     20 HG22         0.2630    -1.9610    -0.1960 hc         1 X6E       0.021033
     21 HG23        -1.3050    -2.7580    -0.1160 hc         1 X6E       0.021033
     22 HD13        -3.5120     3.3150    -4.0330 hc         1 X6E       0.011367
     23 HD11        -2.0780     2.5480    -4.7070 hc         1 X6E       0.011367
     24 HD12        -3.6280     1.7150    -4.7590 hc         1 X6E       0.011367
@<TRIPOS>BOND
     1     1     2 1   
     2     1    11 1   
     3     1    12 1   
     4     2     3 1   
     5     2     5 1   
     6     2     6 1   
     7     3     4 1   
     8     3    10 1   
     9     5     7 1   
    10     5    13 1   
    11     5    14 1   
    12     6     8 1   
    13     6    15 1   
    14     6    16 1   
    15     7     9 1   
    16     7    17 1   
    17     7    18 1   
    18     8    19 1   
    19     8    20 1   
    20     8    21 1   
    21     9    22 1   
    22     9    23 1   
    23     9    24 1   
@<TRIPOS>SUBSTRUCTURE
     1 X6E         1 TEMP              0 ****  ****    0 ROOT
