@<TRIPOS>MOLECULE
X6E
   24    23     1     0     0
SMALL
No Charge or Current Charge


@<TRIPOS>ATOM
      1 N           -0.4120     0.4830    -1.0440 n8         1 X6E      -0.994200
      2 CA          -1.5120    -0.3430    -1.6710 c3         1 X6E       0.037200
      3 C           -2.7880    -0.5830    -0.7300 c          1 X6E       0.726000
      4 O           -2.8150    -0.0340     0.3670 o          1 X6E      -0.730000
      5 CB1         -1.9760     0.3790    -2.9790 c3         1 X6E      -0.024400
      6 CB2         -0.8800    -1.7230    -2.0480 c3         1 X6E      -0.083400
      7 CG1         -2.6460     1.7630    -2.7750 c3         1 X6E      -0.069400
      8 CG2         -0.3950    -2.5800    -0.8540 c3         1 X6E      -0.079100
      9 CD1         -3.0900     2.4160    -4.0990 c3         1 X6E      -0.085100
     10 OXT         -3.6970    -1.3030    -1.1260 o          1 X6E      -0.730000
     11 H           -0.8610     1.1980    -0.4600 hn         1 X6E       0.379000
     12 H2           0.0680    -0.1020    -0.3530 hn         1 X6E       0.379000
     13 HB12        -2.6820    -0.2700    -3.5130 hc         1 X6E       0.012700
     14 HB11        -1.1150     0.5030    -3.6490 hc         1 X6E       0.012700
     15 HB21        -1.6110    -2.3120    -2.6150 hc         1 X6E       0.020700
     16 HB22        -0.0310    -1.5640    -2.7260 hc         1 X6E       0.020700
     17 HG12        -1.9490     2.4410    -2.2670 hc         1 X6E       0.054700
     18 HG11        -3.5220     1.6590    -2.1250 hc         1 X6E       0.054700
     19 HG21         0.0120    -3.5320    -1.2150 hc         1 X6E       0.021033
     20 HG22         0.3940    -2.0700    -0.2900 hc         1 X6E       0.021033
     21 HG23        -1.2210    -2.8070    -0.1690 hc         1 X6E       0.021033
     22 HD13        -3.5560     3.3900    -3.9070 hc         1 X6E       0.011367
     23 HD11        -2.2310     2.5720    -4.7630 hc         1 X6E       0.011367
     24 HD12        -3.8200     1.7830    -4.6180 hc         1 X6E       0.011367
@<TRIPOS>BOND
     1     1     2 1   
     2     1    11 1   
     3     1    12 1   
     4     2     3 1   
     5     2     5 1   
     6     2     6 1   
     7     3     4 1   
     8     3    10 1   
     9     5     7 1   
    10     5    13 1   
    11     5    14 1   
    12     6     8 1   
    13     6    15 1   
    14     6    16 1   
    15     7     9 1   
    16     7    17 1   
    17     7    18 1   
    18     8    19 1   
    19     8    20 1   
    20     8    21 1   
    21     9    22 1   
    22     9    23 1   
    23     9    24 1   
@<TRIPOS>SUBSTRUCTURE
     1 X6E         1 TEMP              0 ****  ****    0 ROOT
