@<TRIPOS>MOLECULE
X6G
   51    54     1     0     0
SMALL
abcg2


@<TRIPOS>ATOM
      1 C4          -0.2090     1.5660     0.3220 ca         1 X6G       0.283500
      2 C5           0.2230     2.8710     0.0910 ca         1 X6G      -0.260000
      3 C6           1.5770     2.9980    -0.1310 ca         1 X6G       0.153900
      4 N1           2.4290     1.9790    -0.1240 nb         1 X6G      -0.238000
      5 N3           0.6080     0.5360     0.3340 nb         1 X6G      -0.297000
      6 CAR          5.9310    -2.0130     0.3420 ca         1 X6G      -0.045800
      7 CAH          4.5770    -1.7300     0.4290 ca         1 X6G      -0.154000
      8 CAG          6.7950    -1.0260    -0.1310 ca         1 X6G      -0.137000
      9 CAS          6.3110     0.2160    -0.5210 ca         1 X6G      -0.045800
     10 CAB          7.2400     1.2630    -1.0670 c3         1 X6G      -0.048300
     11 CAI          4.9470     0.4890    -0.4300 ca         1 X6G      -0.154000
     12 CAT          4.0710    -0.4820     0.0490 ca         1 X6G       0.320000
     13 C2           1.9040     0.7840     0.1170 ca         1 X6G       0.413900
     14 NBA         -1.5490     1.2790     0.5530 na         1 X6G       0.097300
     15 CAJ         -2.1090     0.0520     0.7180 cc         1 X6G      -0.091000
     16 NAP         -2.4540     2.2640     0.6500 nc         1 X6G      -0.515800
     17 CAU         -3.6010     1.6690     0.8780 cd         1 X6G       0.283300
     18 CAC         -4.8560     2.4490     1.0550 c3         1 X6G      -0.125400
     19 CAV         -3.4420     0.2550     0.9330 cd         1 X6G      -0.207300
     20 CAK         -4.4940    -0.7860     1.1280 c3         1 X6G       0.251100
     21 NAZ         -4.8490    -1.4130    -0.1240 nq         1 X6G      -0.708600
     22 CAM         -5.5820    -0.6170    -1.1120 cy         1 X6G       0.125300
     23 CAL         -5.9210    -2.4130    -0.1080 cy         1 X6G       0.125300
     24 CAY         -6.3650    -1.8790    -1.4820 cy         1 X6G       0.136300
     25 OAD         -7.7210    -1.6770    -1.7370 oh         1 X6G      -0.645000
     26 H1          -0.4450     3.7170     0.0800 ha         1 X6G       0.163000
     27 H2           2.0020     3.9750    -0.3290 h4         1 X6G       0.027100
     28 H3           6.4390    -4.0480    -0.1190 hc         1 X6G       0.042867
     29 H4           7.4770    -3.3120     1.0930 hc         1 X6G       0.042867
     30 H5           5.8400    -3.8170     1.5160 hc         1 X6G       0.042867
     31 H6           3.8980    -2.4870     0.8080 ha         1 X6G       0.128000
     32 H7           7.8590    -1.2310    -0.1930 ha         1 X6G       0.112000
     33 H8           7.1960     1.2900    -2.1580 hc         1 X6G       0.042867
     34 H9           6.9770     2.2590    -0.7110 hc         1 X6G       0.042867
     35 H10          8.2750     1.0660    -0.7880 hc         1 X6G       0.042867
     36 H11          4.5770     1.4580    -0.7280 ha         1 X6G       0.128000
     37 H13         -1.5240    -0.8500     0.6720 h4         1 X6G       0.178000
     38 H14         -5.5510     2.2780     0.2320 hc         1 X6G       0.051033
     39 H15         -5.3690     2.1670     1.9750 hc         1 X6G       0.051033
     40 H16         -4.6430     3.5160     1.0970 hc         1 X6G       0.051033
     41 H17         -4.1270    -1.5640     1.8020 h1         1 X6G       0.039700
     42 H18         -5.3710    -0.3350     1.6210 h1         1 X6G       0.039700
     43 H20         -6.2500     0.1280    -0.6550 h1         1 X6G       0.055700
     44 H21         -4.9750    -0.1270    -1.8770 h1         1 X6G       0.055700
     45 H22         -5.5930    -3.4520    -0.0230 h1         1 X6G       0.055700
     46 H23         -6.6890    -2.2160     0.6540 h1         1 X6G       0.055700
     47 H24         -5.8720    -2.4280    -2.2910 h1         1 X6G       0.052700
     48 H25         -8.1080    -2.5160    -2.0050 ho         1 X6G       0.448000
     49 NAQ          2.6920    -0.3210     0.1690 nu         1 X6G      -0.926900
     50 CAA          6.4500    -3.3660     0.7340 c3         1 X6G      -0.048300
     51 H12          2.1820    -1.1590     0.4070 hn         1 X6G       0.509000
@<TRIPOS>BOND
     1     1     2 ar  
     2     1     5 ar  
     3     1    14 1   
     4     2     3 ar  
     5     2    26 1   
     6     3     4 ar  
     7     3    27 1   
     8     4    13 ar  
     9     5    13 ar  
    10     6     7 ar  
    11     6     8 ar  
    12     6    50 1   
    13     7    12 ar  
    14     7    31 1   
    15     8     9 ar  
    16     8    32 1   
    17     9    10 1   
    18     9    11 ar  
    19    10    33 1   
    20    10    34 1   
    21    10    35 1   
    22    11    12 ar  
    23    11    36 1   
    24    12    49 1   
    25    13    49 1   
    26    14    15 1   
    27    14    16 1   
    28    15    19 2   
    29    15    37 1   
    30    16    17 2   
    31    17    18 1   
    32    17    19 1   
    33    18    38 1   
    34    18    39 1   
    35    18    40 1   
    36    19    20 1   
    37    20    21 1   
    38    20    41 1   
    39    20    42 1   
    40    21    22 1   
    41    21    23 1   
    42    22    24 1   
    43    22    43 1   
    44    22    44 1   
    45    23    24 1   
    46    23    45 1   
    47    23    46 1   
    48    24    25 1   
    49    24    47 1   
    50    25    48 1   
    51    28    50 1   
    52    29    50 1   
    53    30    50 1   
    54    49    51 1   
@<TRIPOS>SUBSTRUCTURE
     1 X6G         1 TEMP              0 ****  ****    0 ROOT
