@<TRIPOS>MOLECULE
X6G
   51    54     1     0     0
SMALL
No Charge or Current Charge


@<TRIPOS>ATOM
      1 C4          -0.2620     1.2530     0.4490 ca         1 X6G       0.283500
      2 C5           0.1170     2.5360    -0.0100 ca         1 X6G      -0.260000
      3 C6           1.4710     2.7860    -0.2770 ca         1 X6G       0.153900
      4 N1           2.4030     1.8340    -0.1090 nb         1 X6G      -0.238000
      5 N3           0.6950     0.3090     0.6070 nb         1 X6G      -0.297000
      6 CAR          6.3480    -1.6430     0.8650 ca         1 X6G      -0.045800
      7 CAH          4.9740    -1.4310     1.0860 ca         1 X6G      -0.154000
      8 CAG          6.9920    -0.9620    -0.1840 ca         1 X6G      -0.137000
      9 CAS          6.2730    -0.0780    -1.0070 ca         1 X6G      -0.045800
     10 CAB          6.9690     0.6430    -2.1510 c3         1 X6G      -0.048300
     11 CAI          4.9000     0.1240    -0.7740 ca         1 X6G      -0.154000
     12 CAT          4.2460    -0.5400     0.2810 ca         1 X6G       0.320000
     13 C2           1.9610     0.6390     0.3140 ca         1 X6G       0.413900
     14 NBA         -1.6230     1.0170     0.7160 na         1 X6G       0.097300
     15 CAJ         -2.2350    -0.2060     0.4790 cc         1 X6G      -0.091000
     16 NAP         -2.4160     1.9790     1.3050 nc         1 X6G      -0.515800
     17 CAU         -3.5660     1.3390     1.4100 cd         1 X6G       0.283300
     18 CAC         -4.7650     2.0280     2.0040 c3         1 X6G      -0.125400
     19 CAV         -3.5120     0.0040     0.9260 cd         1 X6G      -0.207300
     20 CAK         -4.6460    -0.9840     0.9090 c3         1 X6G       0.251100
     21 NAZ         -5.1750    -1.1870    -0.4400 nq         1 X6G      -0.708600
     22 CAM         -5.8510    -0.0780    -1.1820 cy         1 X6G       0.125300
     23 CAL         -6.3720    -2.0460    -0.6960 cy         1 X6G       0.125300
     24 CAY         -6.4820    -1.2330    -2.0380 cy         1 X6G       0.136300
     25 OAD         -7.7960    -1.0100    -2.5560 oh         1 X6G      -0.645000
     26 H1          -0.6200     3.3200    -0.1570 ha         1 X6G       0.163000
     27 H2           1.8130     3.7580    -0.6280 h4         1 X6G       0.027100
     28 H3           7.0840    -3.6250     1.3430 hc         1 X6G       0.042867
     29 H4           8.1830    -2.3190     1.8190 hc         1 X6G       0.042867
     30 H5           6.7230    -2.6320     2.7660 hc         1 X6G       0.042867
     31 H6           4.4740    -1.9580     1.8940 ha         1 X6G       0.128000
     32 H7           8.0520    -1.1270    -0.3640 ha         1 X6G       0.112000
     33 H8           6.9010     0.0610    -3.0780 hc         1 X6G       0.042867
     34 H9           6.5190     1.6250    -2.3380 hc         1 X6G       0.042867
     35 H10          8.0320     0.8050    -1.9350 hc         1 X6G       0.042867
     36 H11          4.3450     0.7850    -1.4310 ha         1 X6G       0.128000
     37 H13         -1.7430    -1.0620     0.0340 h4         1 X6G       0.178000
     38 H14         -5.6110     2.0030     1.3080 hc         1 X6G       0.051033
     39 H15         -5.0760     1.5340     2.9320 hc         1 X6G       0.051033
     40 H16         -4.5550     3.0780     2.2370 hc         1 X6G       0.051033
     41 H17         -4.2860    -1.9470     1.2980 h1         1 X6G       0.039700
     42 H18         -5.4530    -0.6370     1.5670 h1         1 X6G       0.039700
     43 H20         -6.5850     0.4930    -0.6000 h1         1 X6G       0.055700
     44 H21         -5.1940     0.6020    -1.7370 h1         1 X6G       0.055700
     45 H22         -6.1800    -3.1180    -0.8200 h1         1 X6G       0.055700
     46 H23         -7.2140    -1.8860    -0.0110 h1         1 X6G       0.055700
     47 H24         -5.8160    -1.6020    -2.8280 h1         1 X6G       0.052700
     48 H25         -8.1120    -1.8600    -2.9350 ho         1 X6G       0.448000
     49 NAQ          2.8800    -0.3770     0.5360 nu         1 X6G      -0.926900
     50 CAA          7.1270    -2.6070     1.7460 c3         1 X6G      -0.048300
     51 H12          2.4720    -1.1420     1.0710 hn         1 X6G       0.509000
@<TRIPOS>BOND
     1     1     2 ar  
     2     1     5 ar  
     3     1    14 1   
     4     2     3 ar  
     5     2    26 1   
     6     3     4 ar  
     7     3    27 1   
     8     4    13 ar  
     9     5    13 ar  
    10     6     7 ar  
    11     6     8 ar  
    12     6    50 1   
    13     7    12 ar  
    14     7    31 1   
    15     8     9 ar  
    16     8    32 1   
    17     9    10 1   
    18     9    11 ar  
    19    10    33 1   
    20    10    34 1   
    21    10    35 1   
    22    11    12 ar  
    23    11    36 1   
    24    12    49 1   
    25    13    49 1   
    26    14    15 1   
    27    14    16 1   
    28    15    19 2   
    29    15    37 1   
    30    16    17 2   
    31    17    18 1   
    32    17    19 1   
    33    18    38 1   
    34    18    39 1   
    35    18    40 1   
    36    19    20 1   
    37    20    21 1   
    38    20    41 1   
    39    20    42 1   
    40    21    22 1   
    41    21    23 1   
    42    22    24 1   
    43    22    43 1   
    44    22    44 1   
    45    23    24 1   
    46    23    45 1   
    47    23    46 1   
    48    24    25 1   
    49    24    47 1   
    50    25    48 1   
    51    28    50 1   
    52    29    50 1   
    53    30    50 1   
    54    49    51 1   
@<TRIPOS>SUBSTRUCTURE
     1 X6G         1 TEMP              0 ****  ****    0 ROOT
