@<TRIPOS>MOLECULE
X6J
   83    86     1     0     0
SMALL
No Charge or Current Charge


@<TRIPOS>ATOM
      1 C10        -23.1350   -15.5640    -9.5360 c3         1 X6J       0.039600
      2 C01        -24.0380   -11.0100    -9.1020 c3         1 X6J      -0.108433
      3 C02        -24.8920   -11.5810   -10.2550 c3         1 X6J       0.223000
      4 C03        -26.3110   -11.9300    -9.7380 c3         1 X6J      -0.108433
      5 C04        -24.9040   -10.5900   -11.4470 c3         1 X6J      -0.108433
      6 C06        -24.6520   -13.6200   -11.6360 c          1 X6J       0.658100
      7 C09        -22.6820   -15.0450   -10.9300 c3         1 X6J       0.152700
      8 C12        -24.3020   -17.5710    -7.8550 c3         1 X6J      -0.007700
      9 C13        -25.2810   -18.7570    -7.7040 c3         1 X6J      -0.010100
     10 C14        -25.5040   -19.1610    -6.2520 ca         1 X6J      -0.087300
     11 C15        -24.8700   -20.3040    -5.7260 ca         1 X6J      -0.095500
     12 C16        -25.0720   -20.6710    -4.3840 ca         1 X6J      -0.107000
     13 C17        -25.9090   -19.8980    -3.5610 ca         1 X6J      -0.103000
     14 C18        -26.5430   -18.7580    -4.0810 ca         1 X6J      -0.107000
     15 C19        -26.3420   -18.3900    -5.4230 ca         1 X6J      -0.095500
     16 C20        -22.9150   -17.9000    -7.2530 c          1 X6J       0.594100
     17 C23        -20.6860   -18.9370    -7.7900 c3         1 X6J       0.104000
     18 C24        -20.1930   -20.0760    -8.7020 c3         1 X6J      -0.095400
     19 C25        -20.9550   -21.4080    -8.5310 c3         1 X6J      -0.025100
     20 C26        -20.4330   -22.4770    -9.4820 ca         1 X6J      -0.130300
     21 C27        -20.6890   -22.3930   -10.8630 ca         1 X6J      -0.073000
     22 C28        -20.1720   -23.3950   -11.6990 ca         1 X6J      -0.165000
     23 C29        -19.4240   -24.4420   -11.1340 ca         1 X6J       0.331900
     24 C31        -19.6720   -23.5650    -9.0030 ca         1 X6J       0.337900
     25 C32        -21.7460   -16.0350   -11.6790 c3         1 X6J      -0.053100
     26 C33        -20.3950   -16.3850   -11.0150 ca         1 X6J      -0.060300
     27 C34        -19.8330   -15.5300   -10.0350 ca         1 X6J      -0.111000
     28 C35        -18.6170   -15.8420    -9.4100 ca         1 X6J      -0.102000
     29 C36        -17.9260   -17.0070    -9.7580 ca         1 X6J      -0.100000
     30 C37        -18.4400   -17.8590   -10.7480 ca         1 X6J      -0.038000
     31 C38        -17.7210   -19.0210   -11.0880 ca         1 X6J      -0.099000
     32 C39        -18.2060   -19.8910   -12.0750 ca         1 X6J      -0.105000
     33 C40        -19.4060   -19.5940   -12.7340 ca         1 X6J      -0.109000
     34 C41        -20.1310   -18.4370   -12.4020 ca         1 X6J      -0.109000
     35 C42        -19.6690   -17.5540   -11.3920 ca         1 X6J      -0.033000
     36 N08        -23.8420   -14.7170   -11.7700 ns         1 X6J      -0.513900
     37 N22        -22.0550   -18.5430    -8.1130 ns         1 X6J      -0.499900
     38 N30        -19.1740   -24.5350    -9.8070 nb         1 X6J      -0.664000
     39 O05        -24.2040   -12.7940   -10.6360 os         1 X6J      -0.479100
     40 O07        -25.6300   -13.4480   -12.3410 o          1 X6J      -0.545000
     41 O21        -22.5780   -17.5640    -6.1260 o          1 X6J      -0.593100
     42 S11        -24.2040   -17.0830    -9.6560 ss         1 X6J      -0.448000
     43 H1         -22.2530   -15.7910    -8.9260 h1         1 X6J       0.078200
     44 H2         -23.7000   -14.7780    -9.0190 h1         1 X6J       0.078200
     45 H3         -23.9820   -11.7210    -8.2690 hc         1 X6J       0.049589
     46 H4         -23.0160   -10.8000    -9.4410 hc         1 X6J       0.049589
     47 H5         -24.4680   -10.0750    -8.7230 hc         1 X6J       0.049589
     48 H6         -26.2700   -12.7550    -9.0160 hc         1 X6J       0.049589
     49 H7         -26.7590   -11.0640    -9.2370 hc         1 X6J       0.049589
     50 H8         -26.9850   -12.2170   -10.5530 hc         1 X6J       0.049589
     51 H9         -23.9050   -10.5040   -11.8920 hc         1 X6J       0.049589
     52 H10        -25.6060   -10.8980   -12.2300 hc         1 X6J       0.049589
     53 H11        -25.2110    -9.5930   -11.1110 hc         1 X6J       0.049589
     54 H12        -22.1230   -14.1120   -10.7820 h1         1 X6J       0.074700
     55 H13        -24.6960   -16.7170    -7.2900 h1         1 X6J       0.099700
     56 H14        -26.2410   -18.4810    -8.1580 hc         1 X6J       0.060700
     57 H15        -24.9070   -19.6090    -8.2860 hc         1 X6J       0.060700
     58 H16        -24.2170   -20.9070    -6.3530 ha         1 X6J       0.109000
     59 H17        -24.5790   -21.5530    -3.9820 ha         1 X6J       0.111500
     60 H18        -26.0650   -20.1830    -2.5230 ha         1 X6J       0.112000
     61 H19        -27.1910   -18.1590    -3.4450 ha         1 X6J       0.111500
     62 H20        -26.8360   -17.5050    -5.8170 ha         1 X6J       0.109000
     63 H21        -20.0350   -18.0620    -7.9150 h1         1 X6J       0.054700
     64 H22        -20.6330   -19.2580    -6.7410 h1         1 X6J       0.054700
     65 H23        -19.1280   -20.2470    -8.5050 hc         1 X6J       0.053700
     66 H24        -20.2730   -19.7520    -9.7450 hc         1 X6J       0.053700
     67 H25        -22.0250   -21.2460    -8.7140 hc         1 X6J       0.052200
     68 H26        -20.8690   -21.7410    -7.4890 hc         1 X6J       0.052200
     69 H27        -21.2700   -21.5710   -11.2770 ha         1 X6J       0.117000
     70 H28        -20.3440   -23.3670   -12.7710 ha         1 X6J       0.122000
     71 H29        -19.0130   -25.2320   -11.7620 h4         1 X6J       0.019100
     72 H30        -19.4500   -23.6630    -7.9410 h4         1 X6J       0.018100
     73 H31        -21.5430   -15.6260   -12.6760 hc         1 X6J       0.063700
     74 H32        -22.3300   -16.9470   -11.8390 hc         1 X6J       0.063700
     75 H33        -20.3250   -14.6100    -9.7390 ha         1 X6J       0.114000
     76 H34        -18.2090   -15.1760    -8.6530 ha         1 X6J       0.118000
     77 H35        -16.9860   -17.2410    -9.2640 ha         1 X6J       0.117000
     78 H36        -16.7850   -19.2530   -10.5860 ha         1 X6J       0.116000
     79 H37        -17.6500   -20.7900   -12.3320 ha         1 X6J       0.119000
     80 H38        -19.7790   -20.2630   -13.5070 ha         1 X6J       0.113000
     81 H39        -21.0460   -18.2450   -12.9510 ha         1 X6J       0.113000
     82 H40        -24.1330   -15.3870   -12.4690 hn         1 X6J       0.333500
     83 H41        -22.4060   -18.7110    -9.0490 hn         1 X6J       0.326500
@<TRIPOS>BOND
     1     1     7 1   
     2     1    42 1   
     3     1    43 1   
     4     1    44 1   
     5     2     3 1   
     6     2    45 1   
     7     2    46 1   
     8     2    47 1   
     9     3     4 1   
    10     3     5 1   
    11     3    39 1   
    12     4    48 1   
    13     4    49 1   
    14     4    50 1   
    15     5    51 1   
    16     5    52 1   
    17     5    53 1   
    18     6    36 1   
    19     6    39 1   
    20     6    40 2   
    21     7    25 1   
    22     7    36 1   
    23     7    54 1   
    24     8     9 1   
    25     8    16 1   
    26     8    42 1   
    27     8    55 1   
    28     9    10 1   
    29     9    56 1   
    30     9    57 1   
    31    10    11 ar  
    32    10    15 ar  
    33    11    12 ar  
    34    11    58 1   
    35    12    13 ar  
    36    12    59 1   
    37    13    14 ar  
    38    13    60 1   
    39    14    15 ar  
    40    14    61 1   
    41    15    62 1   
    42    16    37 1   
    43    16    41 2   
    44    17    18 1   
    45    17    37 1   
    46    17    63 1   
    47    17    64 1   
    48    18    19 1   
    49    18    65 1   
    50    18    66 1   
    51    19    20 1   
    52    19    67 1   
    53    19    68 1   
    54    20    21 ar  
    55    20    24 ar  
    56    21    22 ar  
    57    21    69 1   
    58    22    23 ar  
    59    22    70 1   
    60    23    38 ar  
    61    23    71 1   
    62    24    38 ar  
    63    24    72 1   
    64    25    26 1   
    65    25    73 1   
    66    25    74 1   
    67    26    27 ar  
    68    26    35 ar  
    69    27    28 ar  
    70    27    75 1   
    71    28    29 ar  
    72    28    76 1   
    73    29    30 ar  
    74    29    77 1   
    75    30    31 ar  
    76    30    35 ar  
    77    31    32 ar  
    78    31    78 1   
    79    32    33 ar  
    80    32    79 1   
    81    33    34 ar  
    82    33    80 1   
    83    34    35 ar  
    84    34    81 1   
    85    36    82 1   
    86    37    83 1   
@<TRIPOS>SUBSTRUCTURE
     1 X6J         1 TEMP              0 ****  ****    0 ROOT
