@<TRIPOS>MOLECULE
X6J
   83    86     1     0     0
SMALL
bcc


@<TRIPOS>ATOM
      1 C10        -23.0460   -15.4200    -9.4720 c3         1 X6J      -0.008300
      2 C01        -24.2100   -10.9870    -9.2240 c3         1 X6J      -0.108433
      3 C02        -24.9850   -11.5930   -10.3890 c3         1 X6J       0.199800
      4 C03        -26.3910   -11.9640    -9.9330 c3         1 X6J      -0.108433
      5 C04        -25.0030   -10.6140   -11.5560 c3         1 X6J      -0.108433
      6 C06        -24.5660   -13.6330   -11.6680 c          1 X6J       0.774100
      7 C09        -22.5870   -14.9380   -10.8500 c3         1 X6J       0.152700
      8 C12        -24.1920   -17.4090    -7.8940 c3         1 X6J      -0.055600
      9 C13        -25.1620   -18.6020    -7.8230 c3         1 X6J      -0.010100
     10 C14        -25.2470   -19.1880    -6.4410 ca         1 X6J      -0.087300
     11 C15        -24.5530   -20.3510    -6.1200 ca         1 X6J      -0.113500
     12 C16        -24.6130   -20.8830    -4.8380 ca         1 X6J      -0.125000
     13 C17        -25.3690   -20.2550    -3.8590 ca         1 X6J      -0.121000
     14 C18        -26.0670   -19.0930    -4.1700 ca         1 X6J      -0.125000
     15 C19        -26.0030   -18.5650    -5.4510 ca         1 X6J      -0.113500
     16 C20        -22.8280   -17.7830    -7.3220 c          1 X6J       0.661100
     17 C23        -20.7370   -19.0020    -7.7270 c3         1 X6J       0.104000
     18 C24        -20.3060   -20.1690    -8.5980 c3         1 X6J      -0.095400
     19 C25        -21.2070   -21.3990    -8.4770 c3         1 X6J      -0.025100
     20 C26        -20.7470   -22.4980    -9.3890 ca         1 X6J      -0.195600
     21 C27        -20.9700   -22.4460   -10.7610 ca         1 X6J      -0.091000
     22 C28        -20.4820   -23.4570   -11.5710 ca         1 X6J      -0.248300
     23 C29        -19.7790   -24.4970   -10.9800 ca         1 X6J       0.397200
     24 C31        -20.0310   -23.5900    -8.9090 ca         1 X6J       0.403200
     25 C32        -21.6780   -15.9380   -11.5660 c3         1 X6J      -0.053100
     26 C33        -20.3780   -16.2790   -10.8820 ca         1 X6J      -0.060300
     27 C34        -19.7890   -15.4280    -9.9800 ca         1 X6J      -0.129000
     28 C35        -18.5580   -15.7290    -9.3650 ca         1 X6J      -0.120000
     29 C36        -17.9020   -16.8870    -9.6650 ca         1 X6J      -0.118000
     30 C37        -18.4530   -17.7900   -10.6020 ca         1 X6J      -0.038000
     31 C38        -17.7770   -18.9880   -10.9330 ca         1 X6J      -0.117000
     32 C39        -18.3020   -19.8650   -11.8410 ca         1 X6J      -0.123000
     33 C40        -19.5310   -19.5750   -12.4610 ca         1 X6J      -0.127000
     34 C41        -20.2090   -18.4230   -12.1590 ca         1 X6J      -0.127000
     35 C42        -19.7000   -17.4920   -11.2190 ca         1 X6J      -0.033000
     36 N08        -23.7050   -14.6730   -11.7360 ns         1 X6J      -0.580900
     37 N22        -22.0490   -18.5290    -8.1150 ns         1 X6J      -0.566900
     38 N30        -19.5570   -24.5670    -9.6730 nb         1 X6J      -0.664000
     39 O05        -24.2130   -12.7790   -10.7140 os         1 X6J      -0.455900
     40 O07        -25.5230   -13.5160   -12.4090 o          1 X6J      -0.594000
     41 O21        -22.5210   -17.4560    -6.1850 o          1 X6J      -0.593100
     42 S11        -24.1340   -16.8690    -9.6270 ss         1 X6J      -0.352200
     43 H1         -22.1760   -15.6870    -8.8720 h1         1 X6J       0.078200
     44 H2         -23.5800   -14.6270    -8.9490 h1         1 X6J       0.078200
     45 H3         -24.1650   -11.6730    -8.3760 hc         1 X6J       0.049589
     46 H4         -23.1910   -10.7320    -9.5160 hc         1 X6J       0.049589
     47 H5         -24.7030   -10.0740    -8.8930 hc         1 X6J       0.049589
     48 H6         -26.3590   -12.7050    -9.1330 hc         1 X6J       0.049589
     49 H7         -26.8840   -11.0750    -9.5380 hc         1 X6J       0.049589
     50 H8         -27.0030   -12.3500   -10.7440 hc         1 X6J       0.049589
     51 H9         -23.9900   -10.3900   -11.8940 hc         1 X6J       0.049589
     52 H10        -25.5800   -10.9830   -12.4010 hc         1 X6J       0.049589
     53 H11        -25.4550    -9.6770   -11.2270 hc         1 X6J       0.049589
     54 H12        -22.0410   -14.0040   -10.6970 h1         1 X6J       0.074700
     55 H13        -24.5820   -16.5910    -7.2840 h1         1 X6J       0.099700
     56 H14        -26.1460   -18.2550    -8.1440 hc         1 X6J       0.060700
     57 H15        -24.8510   -19.3720    -8.5320 hc         1 X6J       0.060700
     58 H16        -23.9610   -20.8470    -6.8800 ha         1 X6J       0.127000
     59 H17        -24.0710   -21.7910    -4.6070 ha         1 X6J       0.129500
     60 H18        -25.4200   -20.6680    -2.8600 ha         1 X6J       0.130000
     61 H19        -26.6650   -18.6010    -3.4140 ha         1 X6J       0.129500
     62 H20        -26.5500   -17.6590    -5.6860 ha         1 X6J       0.127000
     63 H21        -20.0000   -18.1970    -7.8110 h1         1 X6J       0.054700
     64 H22        -20.7680   -19.3050    -6.6800 h1         1 X6J       0.054700
     65 H23        -19.2830   -20.4350    -8.3260 hc         1 X6J       0.053700
     66 H24        -20.2610   -19.8510    -9.6430 hc         1 X6J       0.053700
     67 H25        -22.2380   -21.1310    -8.7250 hc         1 X6J       0.052200
     68 H26        -21.2130   -21.7520    -7.4430 hc         1 X6J       0.052200
     69 H27        -21.5200   -21.6180   -11.1940 ha         1 X6J       0.135000
     70 H28        -20.6420   -23.4450   -12.6410 ha         1 X6J       0.140000
     71 H29        -19.3820   -25.3050   -11.5850 h4         1 X6J       0.019100
     72 H30        -19.8370   -23.6740    -7.8440 h4         1 X6J       0.018100
     73 H31        -21.4550   -15.5370   -12.5610 hc         1 X6J       0.063700
     74 H32        -22.2550   -16.8500   -11.7350 hc         1 X6J       0.063700
     75 H33        -20.2640   -14.4910    -9.7190 ha         1 X6J       0.132000
     76 H34        -18.1370   -15.0290    -8.6540 ha         1 X6J       0.136000
     77 H35        -16.9530   -17.1250    -9.1990 ha         1 X6J       0.135000
     78 H36        -16.8310   -19.2000   -10.4500 ha         1 X6J       0.134000
     79 H37        -17.7800   -20.7820   -12.0820 ha         1 X6J       0.137000
     80 H38        -19.9470   -20.2680   -13.1810 ha         1 X6J       0.131000
     81 H39        -21.1480   -18.2330   -12.6610 ha         1 X6J       0.131000
     82 H40        -23.9330   -15.3710   -12.4270 hn         1 X6J       0.333500
     83 H41        -22.3120   -18.6100    -9.0870 hn         1 X6J       0.326500
@<TRIPOS>BOND
     1     1     7 1   
     2     1    42 1   
     3     1    43 1   
     4     1    44 1   
     5     2     3 1   
     6     2    45 1   
     7     2    46 1   
     8     2    47 1   
     9     3     4 1   
    10     3     5 1   
    11     3    39 1   
    12     4    48 1   
    13     4    49 1   
    14     4    50 1   
    15     5    51 1   
    16     5    52 1   
    17     5    53 1   
    18     6    36 1   
    19     6    39 1   
    20     6    40 2   
    21     7    25 1   
    22     7    36 1   
    23     7    54 1   
    24     8     9 1   
    25     8    16 1   
    26     8    42 1   
    27     8    55 1   
    28     9    10 1   
    29     9    56 1   
    30     9    57 1   
    31    10    11 ar  
    32    10    15 ar  
    33    11    12 ar  
    34    11    58 1   
    35    12    13 ar  
    36    12    59 1   
    37    13    14 ar  
    38    13    60 1   
    39    14    15 ar  
    40    14    61 1   
    41    15    62 1   
    42    16    37 1   
    43    16    41 2   
    44    17    18 1   
    45    17    37 1   
    46    17    63 1   
    47    17    64 1   
    48    18    19 1   
    49    18    65 1   
    50    18    66 1   
    51    19    20 1   
    52    19    67 1   
    53    19    68 1   
    54    20    21 ar  
    55    20    24 ar  
    56    21    22 ar  
    57    21    69 1   
    58    22    23 ar  
    59    22    70 1   
    60    23    38 ar  
    61    23    71 1   
    62    24    38 ar  
    63    24    72 1   
    64    25    26 1   
    65    25    73 1   
    66    25    74 1   
    67    26    27 ar  
    68    26    35 ar  
    69    27    28 ar  
    70    27    75 1   
    71    28    29 ar  
    72    28    76 1   
    73    29    30 ar  
    74    29    77 1   
    75    30    31 ar  
    76    30    35 ar  
    77    31    32 ar  
    78    31    78 1   
    79    32    33 ar  
    80    32    79 1   
    81    33    34 ar  
    82    33    80 1   
    83    34    35 ar  
    84    34    81 1   
    85    36    82 1   
    86    37    83 1   
@<TRIPOS>SUBSTRUCTURE
     1 X6J         1 TEMP              0 ****  ****    0 ROOT
