@<TRIPOS>MOLECULE
X6L
   42    45     1     0     0
SMALL
abcg2


@<TRIPOS>ATOM
      1 C22          8.4640    -1.9350     0.1180 ca         1 X6L      -0.102000
      2 C21          7.4200    -2.5070    -0.5980 ca         1 X6L      -0.111500
      3 C23          8.2620    -0.7340     0.7840 ca         1 X6L      -0.111500
      4 C20          6.1830    -1.8830    -0.6460 ca         1 X6L      -0.094000
      5 C24          7.0260    -0.1070     0.7320 ca         1 X6L      -0.094000
      6 C15          4.5560     1.3850    -0.1100 ca         1 X6L      -0.117000
      7 C17          3.4750    -0.7550    -0.0200 ca         1 X6L      -0.117000
      8 C14          3.3240     2.0070    -0.1710 ca         1 X6L      -0.059500
      9 C18          2.2400    -0.1340    -0.0750 ca         1 X6L      -0.059500
     10 C19          5.9690    -0.6730     0.0170 cp         1 X6L      -0.047000
     11 C16          4.6540    -0.0080    -0.0370 cp         1 X6L       0.001000
     12 C13          2.1480     1.2550    -0.1560 ca         1 X6L      -0.176600
     13 C5          -4.2310    -0.7250     0.1690 cc         1 X6L       0.093500
     14 C4          -5.1470     0.2770    -0.0850 cd         1 X6L       0.152400
     15 C7          -3.0870     1.0280    -0.1260 cd         1 X6L       0.496800
     16 C25         -4.7080    -2.0420     0.4170 c          1 X6L       0.521500
     17 C2          -6.9290    -1.0190     0.0880 cc         1 X6L       0.735800
     18 C11          0.8450     1.9540    -0.2290 c          1 X6L       0.596700
     19 C10         -0.4070     1.1170    -0.1450 c3         1 X6L      -0.065400
     20 N6          -2.9470    -0.2350     0.1400 nc         1 X6L      -0.616000
     21 N3          -6.4820     0.1930    -0.1380 nd         1 X6L      -0.706100
     22 N8          -4.3990     1.3960    -0.2730 na         1 X6L      -0.293500
     23 N27         -6.1080    -2.0760     0.3550 ns         1 X6L      -0.457400
     24 N1          -8.2450    -1.2700     0.0250 nv         1 X6L      -1.044200
     25 O26         -4.0730    -3.0560     0.6570 o          1 X6L      -0.518000
     26 O12          0.7680     3.1580    -0.3470 o          1 X6L      -0.513100
     27 S9          -1.8280     2.2260    -0.2820 ss         1 X6L      -0.281300
     28 H22          9.4300    -2.4220     0.1550 ha         1 X6L       0.114000
     29 H21          7.5710    -3.4390    -1.1260 ha         1 X6L       0.114500
     30 H23          9.0660    -0.2840     1.3520 ha         1 X6L       0.114500
     31 H20          5.3860    -2.3310    -1.2260 ha         1 X6L       0.115000
     32 H24          6.8780     0.8200     1.2720 ha         1 X6L       0.115000
     33 H15          5.4530     1.9890    -0.1420 ha         1 X6L       0.121500
     34 H14          3.2760     3.0850    -0.2360 ha         1 X6L       0.128500
     35 H17          3.5180    -1.8330     0.0580 ha         1 X6L       0.121500
     36 H18          1.3530    -0.7530    -0.0530 ha         1 X6L       0.128500
     37 H8          -4.7530     2.3160    -0.4920 hn         1 X6L       0.375000
     38 H27         -6.5310    -2.9820     0.5170 hn         1 X6L       0.323500
     39 H11N        -8.8670    -0.4820    -0.0270 hn         1 X6L       0.501500
     40 H12N        -8.6280    -2.1180     0.4060 hn         1 X6L       0.501500
     41 H101        -0.4330     0.3740    -0.9450 h1         1 X6L       0.105700
     42 H102        -0.4400     0.5750     0.8020 h1         1 X6L       0.105700
@<TRIPOS>BOND
     1     1     2 ar  
     2     1     3 ar  
     3     1    28 1   
     4     2     4 ar  
     5     2    29 1   
     6     3     5 ar  
     7     3    30 1   
     8     4    10 ar  
     9     4    31 1   
    10     5    10 ar  
    11     5    32 1   
    12     6     8 ar  
    13     6    11 ar  
    14     6    33 1   
    15     7     9 ar  
    16     7    11 ar  
    17     7    35 1   
    18     8    12 ar  
    19     8    34 1   
    20     9    12 ar  
    21     9    36 1   
    22    10    11 1   
    23    12    18 1   
    24    13    14 2   
    25    13    16 1   
    26    13    20 1   
    27    14    21 1   
    28    14    22 1   
    29    15    20 2   
    30    15    22 1   
    31    15    27 1   
    32    16    23 1   
    33    16    25 2   
    34    17    21 2   
    35    17    23 1   
    36    17    24 1   
    37    18    19 1   
    38    18    26 2   
    39    19    27 1   
    40    19    41 1   
    41    19    42 1   
    42    22    37 1   
    43    23    38 1   
    44    24    39 1   
    45    24    40 1   
@<TRIPOS>SUBSTRUCTURE
     1 X6L         1 TEMP              0 ****  ****    0 ROOT
