@<TRIPOS>MOLECULE
X6L
   42    45     1     0     0
SMALL
No Charge or Current Charge


@<TRIPOS>ATOM
      1 C22          8.5480    -2.0410     0.1600 ca         1 X6L      -0.102000
      2 C21          7.4550    -2.6500    -0.4760 ca         1 X6L      -0.111500
      3 C23          8.4010    -0.7680     0.7330 ca         1 X6L      -0.111500
      4 C20          6.2160    -1.9880    -0.5380 ca         1 X6L      -0.094000
      5 C24          7.1630    -0.1050     0.6710 ca         1 X6L      -0.094000
      6 C15          4.6490     1.4120    -0.1690 ca         1 X6L      -0.117000
      7 C17          3.5040    -0.7100     0.0400 ca         1 X6L      -0.117000
      8 C14          3.4130     2.0760    -0.2330 ca         1 X6L      -0.059500
      9 C18          2.2630    -0.0520    -0.0210 ca         1 X6L      -0.059500
     10 C19          6.0430    -0.7010     0.0340 cp         1 X6L      -0.047000
     11 C16          4.7230     0.0050    -0.0320 cp         1 X6L       0.001000
     12 C13          2.2000     1.3540    -0.1590 ca         1 X6L      -0.176600
     13 C5          -4.3680    -0.7070     0.0410 cc         1 X6L       0.093500
     14 C4          -5.2930     0.3060    -0.0620 cd         1 X6L       0.152400
     15 C7          -3.2680     1.0980    -0.1360 cd         1 X6L       0.496800
     16 C25         -4.8190    -2.1130     0.1770 c          1 X6L       0.521500
     17 C2          -7.0040    -1.1440     0.0800 cc         1 X6L       0.735800
     18 C11          0.8760     2.0940    -0.2280 c          1 X6L       0.596700
     19 C10         -0.4310     1.2810    -0.1500 c3         1 X6L      -0.065400
     20 N6          -3.0830    -0.2070    -0.0060 nc         1 X6L      -0.616000
     21 N3          -6.6710     0.1210    -0.0470 nd         1 X6L      -0.706100
     22 N8          -4.5900     1.4750    -0.1760 na         1 X6L      -0.293500
     23 N27         -6.1760    -2.2080     0.1860 ns         1 X6L      -0.457400
     24 N1          -8.2940    -1.4100     0.1090 nv         1 X6L      -1.044200
     25 O26         -4.0990    -3.0980     0.2710 o          1 X6L      -0.518000
     26 O12          0.8530     3.3150    -0.3450 o          1 X6L      -0.513100
     27 S9          -1.9870     2.3030    -0.2530 ss         1 X6L      -0.281300
     28 H22          9.5060    -2.5530     0.2080 ha         1 X6L       0.114000
     29 H21          7.5670    -3.6350    -0.9250 ha         1 X6L       0.114500
     30 H23          9.2460    -0.2950     1.2300 ha         1 X6L       0.114500
     31 H20          5.3870    -2.4730    -1.0470 ha         1 X6L       0.115000
     32 H24          7.0680     0.8740     1.1340 ha         1 X6L       0.115000
     33 H15          5.5620     1.9980    -0.2430 ha         1 X6L       0.121500
     34 H14          3.4050     3.1590    -0.3420 ha         1 X6L       0.128500
     35 H17          3.5170    -1.7900     0.1600 ha         1 X6L       0.121500
     36 H18          1.3600    -0.6560     0.0440 ha         1 X6L       0.128500
     37 H8          -4.9530     2.4110    -0.2700 hn         1 X6L       0.375000
     38 H27         -6.5680    -3.1320     0.2510 hn         1 X6L       0.323500
     39 H11N        -8.8650    -0.5790     0.2130 hn         1 X6L       0.501500
     40 H12N        -8.5870    -2.2000     0.6700 hn         1 X6L       0.501500
     41 H101        -0.4220     0.5550    -0.9720 h1         1 X6L       0.105700
     42 H102        -0.4250     0.7300     0.7980 h1         1 X6L       0.105700
@<TRIPOS>BOND
     1     1     2 ar  
     2     1     3 ar  
     3     1    28 1   
     4     2     4 ar  
     5     2    29 1   
     6     3     5 ar  
     7     3    30 1   
     8     4    10 ar  
     9     4    31 1   
    10     5    10 ar  
    11     5    32 1   
    12     6     8 ar  
    13     6    11 ar  
    14     6    33 1   
    15     7     9 ar  
    16     7    11 ar  
    17     7    35 1   
    18     8    12 ar  
    19     8    34 1   
    20     9    12 ar  
    21     9    36 1   
    22    10    11 1   
    23    12    18 1   
    24    13    14 2   
    25    13    16 1   
    26    13    20 1   
    27    14    21 1   
    28    14    22 1   
    29    15    20 2   
    30    15    22 1   
    31    15    27 1   
    32    16    23 1   
    33    16    25 2   
    34    17    21 2   
    35    17    23 1   
    36    17    24 1   
    37    18    19 1   
    38    18    26 2   
    39    19    27 1   
    40    19    41 1   
    41    19    42 1   
    42    22    37 1   
    43    23    38 1   
    44    24    39 1   
    45    24    40 1   
@<TRIPOS>SUBSTRUCTURE
     1 X6L         1 TEMP              0 ****  ****    0 ROOT
