@<TRIPOS>MOLECULE
X6M
  132   138     1     0     0
SMALL
No Charge or Current Charge


@<TRIPOS>ATOM
      1 N           14.0070    12.9000   -13.6630 n3         1 X6M      -0.717600
      2 C           15.2520    12.5890   -14.4200 c3         1 X6M       0.151100
      3 O           13.2030     5.9520   -16.1520 o          1 X6M      -0.526000
      4 C1          12.7540    12.4990   -14.4030 c6         1 X6M       0.181500
      5 C10         10.3570     7.9650   -13.9620 cc         1 X6M      -0.248200
      6 C11         11.6820     8.3950   -14.0780 cd         1 X6M       0.006600
      7 C12         12.3450     6.5320   -15.5070 c          1 X6M       0.553200
      8 C13         10.9610     6.0730   -15.3810 cd         1 X6M      -0.266200
      9 C14          9.9650     6.7170   -14.6510 cc         1 X6M      -0.065200
     10 C15          8.5490     6.1200   -14.5910 c3         1 X6M       0.355200
     11 C16          8.2250    10.8260   -11.0210 ca         1 X6M      -0.087000
     12 C17          7.7580    11.8460   -10.1570 cp         1 X6M      -0.033000
     13 C18          6.4470    11.6840    -9.4550 cp         1 X6M      -0.082000
     14 C19          5.3230    11.2040   -10.1710 ca         1 X6M      -0.021000
     15 C2          12.6380    13.1440   -15.8160 c3         1 X6M      -0.092100
     16 C20          4.0800    10.9750    -9.5430 ca         1 X6M      -0.172600
     17 C21          2.9420    10.4180   -10.3640 c          1 X6M       0.612700
     18 C22          0.7310     9.1900   -10.3170 c3         1 X6M       0.018000
     19 C23          1.0760     7.7750   -10.8540 c          1 X6M       0.593100
     20 C24          2.8950     5.9810   -10.9080 c3         1 X6M       0.053700
     21 C25          3.9600     6.2100   -12.0540 c3         1 X6M      -0.046000
     22 C26          5.1450     7.0800   -11.5450 c3         1 X6M      -0.090767
     23 C27          3.3010     6.9340   -13.2620 c3         1 X6M      -0.090767
     24 C28          4.5330     4.8650   -12.5790 c3         1 X6M      -0.090767
     25 C29          3.4680     5.2450    -9.6450 c          1 X6M       0.607100
     26 C3          11.4470    12.8240   -13.5970 c6         1 X6M       0.184300
     27 C30          4.2680     3.0970    -8.5670 c5         1 X6M       0.032700
     28 C31          5.7870     3.4390    -8.4260 c          1 X6M       0.605100
     29 C32          7.5840     3.2370    -6.6770 c3         1 X6M       0.164000
     30 C33          7.8300     4.7030    -6.2660 c3         1 X6M      -0.105100
     31 C34          7.8620     2.2620    -5.5350 ca         1 X6M      -0.084300
     32 C35          7.1520     2.3490    -4.3190 ca         1 X6M      -0.097500
     33 C36          7.4130     1.4440    -3.2760 ca         1 X6M      -0.095000
     34 C37          8.3900     0.4440    -3.4260 ca         1 X6M      -0.007000
     35 C38          8.6450    -0.4940    -2.3350 cc         1 X6M      -0.182000
     36 C39          9.9070    -0.6990    -1.8120 cd         1 X6M       0.299300
     37 C4          14.0030    12.3120   -12.2710 c6         1 X6M       0.181500
     38 C40         11.1940    -0.0460    -2.2440 c3         1 X6M      -0.121400
     39 C41          8.7040    -2.0380    -0.5020 cc         1 X6M       0.412300
     40 C42          9.0880     0.3460    -4.6450 ca         1 X6M      -0.095000
     41 C43          8.8280     1.2490    -5.6910 ca         1 X6M      -0.097500
     42 C44          4.1240     1.6340    -9.0800 c5         1 X6M      -0.128400
     43 C45          2.6700     1.6110    -9.6120 c5         1 X6M       0.150300
     44 C46          2.5920     2.9690   -10.3760 c5         1 X6M       0.110000
     45 C47          3.9520    11.2520    -8.1630 ca         1 X6M      -0.054000
     46 C48          5.0510    11.7460    -7.4390 ca         1 X6M      -0.164000
     47 C49          6.2840    11.9570    -8.0730 ca         1 X6M       0.202000
     48 C5          15.2240    12.7530   -11.4110 c3         1 X6M      -0.092100
     49 C50          8.5560    13.0020    -9.9970 ca         1 X6M      -0.085000
     50 C51          9.7800    13.1300   -10.6740 ca         1 X6M      -0.132000
     51 C6          12.6890    12.6480   -11.4810 c6         1 X6M       0.184300
     52 C7          10.2340    12.1110   -11.5300 ca         1 X6M       0.233000
     53 C8           9.4490    10.9510   -11.7140 ca         1 X6M      -0.044000
     54 C9           9.3990     8.7980   -13.1340 c          1 X6M       0.624300
     55 F            8.4480     4.9680   -15.2940 f          1 X6M      -0.103333
     56 F1           8.1780     5.8110   -13.3270 f          1 X6M      -0.103333
     57 F2           7.6180     6.9520   -15.1160 f          1 X6M      -0.103333
     58 F3           7.3260    12.3910    -7.3280 f          1 X6M      -0.172000
     59 N1          11.4600    12.2500   -12.2230 nh         1 X6M      -0.801400
     60 N2           9.9620     9.9380   -12.5750 ns         1 X6M      -0.144000
     61 N3          12.5970     7.6830   -14.8260 ns         1 X6M      -0.360100
     62 N4           1.8840     9.8700    -9.6690 ns         1 X6M      -0.518900
     63 N5           2.2970     7.2630   -10.4620 ns         1 X6M      -0.489900
     64 N6           3.5520     3.8340    -9.6420 n          1 X6M      -0.385800
     65 N7           6.2240     3.0490    -7.1770 ns         1 X6M      -0.503900
     66 N8           9.9360    -1.6040    -0.7600 nd         1 X6M      -0.636000
     67 O1           8.2210     8.5290   -12.9630 o          1 X6M      -0.549100
     68 O3           1.7230     1.5390    -8.5400 oh         1 X6M      -0.651000
     69 O4           3.8740     5.8790    -8.6740 o          1 X6M      -0.629100
     70 O5           0.3200     7.1520   -11.5880 o          1 X6M      -0.609100
     71 O6           2.9570    10.4270   -11.5850 o          1 X6M      -0.575100
     72 S            7.4180    -1.3820    -1.4840 ss         1 X6M      -0.030400
     73 H2          16.1430    12.9500   -13.8930 h1         1 X6M       0.031367
     74 H3          15.3550    11.5070   -14.5760 h1         1 X6M       0.031367
     75 H4          15.2600    13.0830   -15.3990 h1         1 X6M       0.031367
     76 H5          12.7720    11.4100   -14.5580 h1         1 X6M       0.023700
     77 H7          12.1210     9.2800   -13.6210 h4         1 X6M       0.215000
     78 H8          10.7820     5.1530   -15.9250 ha         1 X6M       0.229000
     79 H9           7.6250     9.9280   -11.1160 ha         1 X6M       0.140000
     80 H10          5.4310    10.9930   -11.2330 ha         1 X6M       0.152000
     81 H11         11.6640    12.9250   -16.2690 hc         1 X6M       0.042200
     82 H12         12.7440    14.2340   -15.7650 hc         1 X6M       0.042200
     83 H13         13.3960    12.7580   -16.5070 hc         1 X6M       0.042200
     84 H14          0.3690     9.7950   -11.1570 h1         1 X6M       0.082200
     85 H15         -0.0790     9.0810    -9.5850 h1         1 X6M       0.082200
     86 H16          2.0900     5.3560   -11.3110 h1         1 X6M       0.083700
     87 H17          5.6860     6.5830   -10.7310 hc         1 X6M       0.041478
     88 H18          5.8620     7.2630   -12.3540 hc         1 X6M       0.041478
     89 H19          4.8020     8.0550   -11.1820 hc         1 X6M       0.041478
     90 H20          2.4300     6.3760   -13.6260 hc         1 X6M       0.041478
     91 H21          2.9710     7.9450   -12.9970 hc         1 X6M       0.041478
     92 H22          4.0090     7.0330   -14.0950 hc         1 X6M       0.041478
     93 H23          5.0680     4.3170   -11.7950 hc         1 X6M       0.041478
     94 H24          3.7350     4.2260   -12.9740 hc         1 X6M       0.041478
     95 H25          5.2470     5.0390   -13.3940 hc         1 X6M       0.041478
     96 H26         11.3260    13.9160   -13.5390 h1         1 X6M       0.048700
     97 H27         10.5840    12.4320   -14.1550 h1         1 X6M       0.048700
     98 H28          3.7670     3.2450    -7.6000 h1         1 X6M       0.069700
     99 H29          8.2760     3.0050    -7.5000 h1         1 X6M       0.077700
    100 H30          8.8490     4.8240    -5.8800 hc         1 X6M       0.045367
    101 H31          7.7130     5.3730    -7.1260 hc         1 X6M       0.045367
    102 H32          7.1260     5.0210    -5.4880 hc         1 X6M       0.045367
    103 H33          6.3940     3.1170    -4.1790 ha         1 X6M       0.112500
    104 H34          6.8590     1.5260    -2.3440 ha         1 X6M       0.117500
    105 H35         14.0550    11.2160   -12.3520 h1         1 X6M       0.023700
    106 H36         11.9350    -0.0530    -1.4360 hc         1 X6M       0.051033
    107 H37         11.6300    -0.5710    -3.1010 hc         1 X6M       0.051033
    108 H38         11.0320     0.9990    -2.5310 hc         1 X6M       0.051033
    109 H39          8.4570    -2.7530     0.2730 h5         1 X6M       0.052100
    110 H40          9.8270    -0.4380    -4.7900 ha         1 X6M       0.117500
    111 H41          9.3780     1.1560    -6.6240 ha         1 X6M       0.112500
    112 H42          4.3070     0.8900    -8.2960 hc         1 X6M       0.066700
    113 H43          4.8330     1.4260    -9.8920 hc         1 X6M       0.066700
    114 H44          2.5110     0.7690   -10.3010 h1         1 X6M       0.055700
    115 H45          1.5720     3.3750   -10.3670 h1         1 X6M       0.070200
    116 H46          2.9010     2.8370   -11.4200 h1         1 X6M       0.070200
    117 H47          3.0100    11.1020    -7.6400 ha         1 X6M       0.119000
    118 H48          4.9500    11.9570    -6.3770 ha         1 X6M       0.136000
    119 H49         15.1220    12.4050   -10.3760 hc         1 X6M       0.042200
    120 H50         16.1640    12.3350   -11.7880 hc         1 X6M       0.042200
    121 H51         15.3190    13.8450   -11.3870 hc         1 X6M       0.042200
    122 H52          8.2170    13.8090    -9.3520 ha         1 X6M       0.122000
    123 H53         10.3720    14.0310   -10.5420 ha         1 X6M       0.119000
    124 H54         12.7190    12.1290   -10.5110 h1         1 X6M       0.048700
    125 H55         12.6670    13.7280   -11.2740 h1         1 X6M       0.048700
    126 H56         10.9260    10.1040   -12.8240 hn         1 X6M       0.170000
    127 H57          1.9260     9.9090    -8.6570 hn         1 X6M       0.321500
    128 H58          2.8310     7.8340    -9.8180 hn         1 X6M       0.334500
    129 H59          5.5490     2.6040    -6.5690 hn         1 X6M       0.314500
    130 H60          1.8070     0.6440    -8.1430 ho         1 X6M       0.445000
    131 H1          13.5540     8.0070   -14.9020 hn         1 X6M       0.336500
    132 O2           6.5140     3.9670    -9.2580 o          1 X6M      -0.584100
@<TRIPOS>BOND
     1     1     2 1   
     2     1     4 1   
     3     1    37 1   
     4     2    73 1   
     5     2    74 1   
     6     2    75 1   
     7     3     7 2   
     8     4    15 1   
     9     4    26 1   
    10     4    76 1   
    11     5     6 2   
    12     5     9 1   
    13     5    54 1   
    14     6    61 1   
    15     6    77 1   
    16     7     8 1   
    17     7    61 1   
    18     8     9 2   
    19     8    78 1   
    20     9    10 1   
    21    10    55 1   
    22    10    56 1   
    23    10    57 1   
    24    11    12 ar  
    25    11    53 ar  
    26    11    79 1   
    27    12    13 1   
    28    12    49 ar  
    29    13    14 ar  
    30    13    47 ar  
    31    14    16 ar  
    32    14    80 1   
    33    15    81 1   
    34    15    82 1   
    35    15    83 1   
    36    16    17 1   
    37    16    45 ar  
    38    17    62 1   
    39    17    71 2   
    40    18    19 1   
    41    18    62 1   
    42    18    84 1   
    43    18    85 1   
    44    19    63 1   
    45    19    70 2   
    46    20    21 1   
    47    20    25 1   
    48    20    63 1   
    49    20    86 1   
    50    21    22 1   
    51    21    23 1   
    52    21    24 1   
    53    22    87 1   
    54    22    88 1   
    55    22    89 1   
    56    23    90 1   
    57    23    91 1   
    58    23    92 1   
    59    24    93 1   
    60    24    94 1   
    61    24    95 1   
    62    25    64 1   
    63    25    69 2   
    64    26    59 1   
    65    26    96 1   
    66    26    97 1   
    67    27    28 1   
    68    27    42 1   
    69    27    64 1   
    70    27    98 1   
    71    28    65 1   
    72    28   132 2   
    73    29    30 1   
    74    29    31 1   
    75    29    65 1   
    76    29    99 1   
    77    30   100 1   
    78    30   101 1   
    79    30   102 1   
    80    31    32 ar  
    81    31    41 ar  
    82    32    33 ar  
    83    32   103 1   
    84    33    34 ar  
    85    33   104 1   
    86    34    35 1   
    87    34    40 ar  
    88    35    36 2   
    89    35    72 1   
    90    36    38 1   
    91    36    66 1   
    92    37    48 1   
    93    37    51 1   
    94    37   105 1   
    95    38   106 1   
    96    38   107 1   
    97    38   108 1   
    98    39    66 2   
    99    39    72 1   
   100    39   109 1   
   101    40    41 ar  
   102    40   110 1   
   103    41   111 1   
   104    42    43 1   
   105    42   112 1   
   106    42   113 1   
   107    43    44 1   
   108    43    68 1   
   109    43   114 1   
   110    44    64 1   
   111    44   115 1   
   112    44   116 1   
   113    45    46 ar  
   114    45   117 1   
   115    46    47 ar  
   116    46   118 1   
   117    47    58 1   
   118    48   119 1   
   119    48   120 1   
   120    48   121 1   
   121    49    50 ar  
   122    49   122 1   
   123    50    52 ar  
   124    50   123 1   
   125    51    59 1   
   126    51   124 1   
   127    51   125 1   
   128    52    53 ar  
   129    52    59 1   
   130    53    60 1   
   131    54    60 1   
   132    54    67 2   
   133    60   126 1   
   134    61   131 1   
   135    62   127 1   
   136    63   128 1   
   137    65   129 1   
   138    68   130 1   
@<TRIPOS>SUBSTRUCTURE
     1 X6M         1 TEMP              0 ****  ****    0 ROOT
