@<TRIPOS>MOLECULE
X6M
  132   138     1     0     0
SMALL
bcc


@<TRIPOS>ATOM
      1 N           14.0670    13.8490   -14.0480 n3         1 X6M      -0.717600
      2 C           15.3350    13.8350   -14.7520 c3         1 X6M       0.151100
      3 O           13.2490     6.8380   -18.0000 o          1 X6M      -0.601500
      4 C1          13.0220    13.1690   -14.8120 c6         1 X6M       0.181500
      5 C10         10.9080     9.0640   -15.5220 cc         1 X6M      -0.248200
      6 C11         11.8020     8.1420   -15.0740 cd         1 X6M       0.056600
      7 C12         12.5380     7.5340   -17.2940 c          1 X6M       0.695700
      8 C13         11.6150     8.5380   -17.7760 cd         1 X6M      -0.216200
      9 C14         10.8320     9.2580   -16.9360 cc         1 X6M      -0.065200
     10 C15          9.9120    10.2990   -17.5240 c3         1 X6M       0.719100
     11 C16          8.9070    10.6130   -11.8260 ca         1 X6M      -0.105000
     12 C17          8.3660    11.3350   -10.7630 cp         1 X6M      -0.033000
     13 C18          7.1450    10.8280   -10.1060 cp         1 X6M      -0.082000
     14 C19          6.0880    10.3240   -10.8600 ca         1 X6M      -0.039000
     15 C2          12.8020    13.8010   -16.1810 c3         1 X6M      -0.092100
     16 C20          4.9450     9.7950   -10.2700 ca         1 X6M      -0.172600
     17 C21          3.8970     9.2150   -11.1610 c          1 X6M       0.679700
     18 C22          1.6170     8.3620   -11.3010 c3         1 X6M       0.018000
     19 C23          1.7460     6.8400   -11.2610 c          1 X6M       0.660100
     20 C24          3.0170     4.9720   -10.2550 c3         1 X6M       0.053700
     21 C25          4.2390     4.4950   -11.1030 c3         1 X6M      -0.046000
     22 C26          5.5090     5.2790   -10.7740 c3         1 X6M      -0.090767
     23 C27          3.9060     4.6950   -12.5830 c3         1 X6M      -0.090767
     24 C28          4.4850     3.0050   -10.8650 c3         1 X6M      -0.090767
     25 C29          3.2570     4.8190    -8.7530 c          1 X6M       0.674100
     26 C3          11.7080    13.2050   -14.0460 c6         1 X6M       0.184300
     27 C30          3.1180     3.5460    -6.7140 c5         1 X6M       0.032700
     28 C31          4.6140     3.5470    -6.4330 c          1 X6M       0.672100
     29 C32          6.3120     4.0470    -4.7410 c3         1 X6M       0.164000
     30 C33          6.4010     4.9750    -3.5340 c3         1 X6M      -0.105100
     31 C34          6.8150     2.6650    -4.3870 ca         1 X6M      -0.084300
     32 C35          5.9950     1.7200    -3.7790 ca         1 X6M      -0.115500
     33 C36          6.4970     0.4850    -3.3990 ca         1 X6M      -0.113000
     34 C37          7.8370     0.1580    -3.6200 ca         1 X6M      -0.007000
     35 C38          8.3740    -1.1430    -3.2200 cc         1 X6M      -0.102400
     36 C39          9.5660    -1.4500    -2.6180 cd         1 X6M       0.364600
     37 C4          14.2010    13.2960   -12.7000 c6         1 X6M       0.181500
     38 C40         10.6160    -0.4800    -2.1860 c3         1 X6M      -0.121400
     39 C41          8.7610    -3.4930    -2.7880 cc         1 X6M       0.412300
     40 C42          8.6530     1.1020    -4.2450 ca         1 X6M      -0.113000
     41 C43          8.1470     2.3370    -4.6160 ca         1 X6M      -0.115500
     42 C44          2.4960     2.1840    -6.3900 c5         1 X6M      -0.128400
     43 C45          1.3350     2.0930    -7.3750 c5         1 X6M       0.127100
     44 C46          1.9570     2.6620    -8.6380 c5         1 X6M       0.110000
     45 C47          4.8600     9.7500    -8.8800 ca         1 X6M      -0.072000
     46 C48          5.8940    10.2400    -8.1020 ca         1 X6M      -0.182000
     47 C49          7.0080    10.7680    -8.7230 ca         1 X6M       0.166900
     48 C5          15.2230    14.0570   -11.8630 c3         1 X6M      -0.092100
     49 C50          9.0010    12.5070   -10.3590 ca         1 X6M      -0.103000
     50 C51         10.1480    12.9420   -11.0040 ca         1 X6M      -0.150000
     51 C6          12.8630    13.3370   -11.9760 c6         1 X6M       0.184300
     52 C7          10.6910    12.2330   -12.0710 ca         1 X6M       0.094600
     53 C8          10.0480    11.0510   -12.4790 ca         1 X6M       0.048600
     54 C9           9.9970     9.7240   -14.5410 c          1 X6M       0.691300
     55 F           10.3090    10.6840   -18.7370 f          1 X6M      -0.224633
     56 F1           8.6650     9.8410   -17.6460 f          1 X6M      -0.224633
     57 F2           9.8710    11.4020   -16.7690 f          1 X6M      -0.224633
     58 F3           8.0050    11.2040    -7.9460 f          1 X6M      -0.136900
     59 N1          11.8710    12.6070   -12.7320 nh         1 X6M      -0.663000
     60 N2          10.6470    10.3160   -13.5090 ns         1 X6M      -0.470100
     61 N3          12.5660     7.4260   -15.9170 ns         1 X6M      -0.427100
     62 N4           2.6630     9.0830   -10.6300 ns         1 X6M      -0.585900
     63 N5           2.7130     6.3660   -10.4680 ns         1 X6M      -0.556900
     64 N6           2.8340     3.7120    -8.1290 n          1 X6M      -0.452800
     65 N7           4.9490     4.0380    -5.2300 ns         1 X6M      -0.570900
     66 N8           9.7640    -2.7840    -2.3850 nd         1 X6M      -0.636000
     67 O1           8.7890     9.6980   -14.6700 o          1 X6M      -0.549100
     68 O3           0.2650     2.9310    -7.0070 oh         1 X6M      -0.588800
     69 O4           3.8430     5.7050    -8.1380 o          1 X6M      -0.629100
     70 O5           0.9810     6.1520   -11.9190 o          1 X6M      -0.609100
     71 O6           4.1590     8.8470   -12.2960 o          1 X6M      -0.575100
     72 S            7.4840    -2.5970    -3.4920 ss         1 X6M      -0.175300
     73 H2          16.0850    14.4020   -14.2060 h1         1 X6M       0.031367
     74 H3          15.7290    12.8180   -14.9080 h1         1 X6M       0.031367
     75 H4          15.2420    14.3080   -15.7270 h1         1 X6M       0.031367
     76 H5          13.2830    12.1030   -14.9580 h1         1 X6M       0.023700
     77 H7          11.9300     7.9200   -14.0240 h4         1 X6M       0.165000
     78 H8          11.5930     8.6870   -18.8460 ha         1 X6M       0.179000
     79 H9           8.4560     9.6720   -12.1110 ha         1 X6M       0.158000
     80 H10          6.1610    10.3530   -11.9390 ha         1 X6M       0.170000
     81 H11         11.9150    13.3740   -16.6500 hc         1 X6M       0.042200
     82 H12         12.6510    14.8780   -16.0900 hc         1 X6M       0.042200
     83 H13         13.6310    13.6300   -16.8650 hc         1 X6M       0.042200
     84 H14          1.5460     8.6570   -12.3490 h1         1 X6M       0.082200
     85 H15          0.6680     8.6270   -10.8340 h1         1 X6M       0.082200
     86 H16          2.1520     4.3900   -10.5770 h1         1 X6M       0.083700
     87 H17          5.8660     5.0940    -9.7610 hc         1 X6M       0.041478
     88 H18          6.3050     4.9780   -11.4580 hc         1 X6M       0.041478
     89 H19          5.3700     6.3540   -10.8980 hc         1 X6M       0.041478
     90 H20          2.9840     4.1840   -12.8610 hc         1 X6M       0.041478
     91 H21          3.8060     5.7490   -12.8450 hc         1 X6M       0.041478
     92 H22          4.7110     4.2860   -13.1970 hc         1 X6M       0.041478
     93 H23          4.7470     2.7850    -9.8300 hc         1 X6M       0.041478
     94 H24          3.6110     2.4080   -11.1340 hc         1 X6M       0.041478
     95 H25          5.3140     2.6660   -11.4890 hc         1 X6M       0.041478
     96 H26         11.3580    14.2460   -13.9610 h1         1 X6M       0.048700
     97 H27         10.9550    12.6590   -14.6130 h1         1 X6M       0.048700
     98 H28          2.6270     4.3370    -6.1370 h1         1 X6M       0.069700
     99 H29          6.9550     4.4490    -5.5300 h1         1 X6M       0.077700
    100 H30          7.4250     5.0160    -3.1680 hc         1 X6M       0.045367
    101 H31          6.0950     5.9870    -3.8000 hc         1 X6M       0.045367
    102 H32          5.7660     4.6220    -2.7200 hc         1 X6M       0.045367
    103 H33          4.9520     1.9450    -3.5920 ha         1 X6M       0.130500
    104 H34          5.8410    -0.2250    -2.9120 ha         1 X6M       0.135500
    105 H35         14.5130    12.2360   -12.7520 h1         1 X6M       0.023700
    106 H36         11.0910    -0.8250    -1.2690 hc         1 X6M       0.051033
    107 H37         11.3990    -0.3760    -2.9400 hc         1 X6M       0.051033
    108 H38         10.2030     0.5110    -2.0060 hc         1 X6M       0.051033
    109 H39          8.7060    -4.5690    -2.6970 h5         1 X6M       0.052100
    110 H40          9.6850     0.8630    -4.4660 ha         1 X6M       0.135500
    111 H41          8.7980     3.0530    -5.1030 ha         1 X6M       0.130500
    112 H42          2.1880     2.1050    -5.3470 hc         1 X6M       0.066700
    113 H43          3.2060     1.3790    -6.5910 hc         1 X6M       0.066700
    114 H44          1.0090     1.0590    -7.5270 h1         1 X6M       0.055700
    115 H45          1.2050     3.0520    -9.3230 h1         1 X6M       0.070200
    116 H46          2.5230     1.8850    -9.1550 h1         1 X6M       0.070200
    117 H47          4.0110     9.3070    -8.3770 ha         1 X6M       0.137000
    118 H48          5.8480    10.1890    -7.0230 ha         1 X6M       0.154000
    119 H49         15.1560    13.7420   -10.8210 hc         1 X6M       0.042200
    120 H50         16.2480    13.8770   -12.1810 hc         1 X6M       0.042200
    121 H51         15.0350    15.1310   -11.9040 hc         1 X6M       0.042200
    122 H52          8.5940    13.1080    -9.5570 ha         1 X6M       0.140000
    123 H53         10.6200    13.8600   -10.6780 ha         1 X6M       0.137000
    124 H54         12.9800    12.8730   -10.9950 h1         1 X6M       0.048700
    125 H55         12.5750    14.3880   -11.8150 h1         1 X6M       0.048700
    126 H56         11.6440    10.4700   -13.6030 hn         1 X6M       0.336500
    127 H57          2.4480     9.5010    -9.7390 hn         1 X6M       0.321500
    128 H58          3.2380     7.0190    -9.9060 hn         1 X6M       0.334500
    129 H59          4.2270     4.4090    -4.6330 hn         1 X6M       0.314500
    130 H60         -0.0680     2.6430    -6.1500 ho         1 X6M       0.406000
    131 H1          13.2020     6.7420   -15.5240 hn         1 X6M       0.336500
    132 O2           5.4250     3.0820    -7.2150 o          1 X6M      -0.584100
@<TRIPOS>BOND
     1     1     2 1   
     2     1     4 1   
     3     1    37 1   
     4     2    73 1   
     5     2    74 1   
     6     2    75 1   
     7     3     7 2   
     8     4    15 1   
     9     4    26 1   
    10     4    76 1   
    11     5     6 2   
    12     5     9 1   
    13     5    54 1   
    14     6    61 1   
    15     6    77 1   
    16     7     8 1   
    17     7    61 1   
    18     8     9 2   
    19     8    78 1   
    20     9    10 1   
    21    10    55 1   
    22    10    56 1   
    23    10    57 1   
    24    11    12 ar  
    25    11    53 ar  
    26    11    79 1   
    27    12    13 1   
    28    12    49 ar  
    29    13    14 ar  
    30    13    47 ar  
    31    14    16 ar  
    32    14    80 1   
    33    15    81 1   
    34    15    82 1   
    35    15    83 1   
    36    16    17 1   
    37    16    45 ar  
    38    17    62 1   
    39    17    71 2   
    40    18    19 1   
    41    18    62 1   
    42    18    84 1   
    43    18    85 1   
    44    19    63 1   
    45    19    70 2   
    46    20    21 1   
    47    20    25 1   
    48    20    63 1   
    49    20    86 1   
    50    21    22 1   
    51    21    23 1   
    52    21    24 1   
    53    22    87 1   
    54    22    88 1   
    55    22    89 1   
    56    23    90 1   
    57    23    91 1   
    58    23    92 1   
    59    24    93 1   
    60    24    94 1   
    61    24    95 1   
    62    25    64 1   
    63    25    69 2   
    64    26    59 1   
    65    26    96 1   
    66    26    97 1   
    67    27    28 1   
    68    27    42 1   
    69    27    64 1   
    70    27    98 1   
    71    28    65 1   
    72    28   132 2   
    73    29    30 1   
    74    29    31 1   
    75    29    65 1   
    76    29    99 1   
    77    30   100 1   
    78    30   101 1   
    79    30   102 1   
    80    31    32 ar  
    81    31    41 ar  
    82    32    33 ar  
    83    32   103 1   
    84    33    34 ar  
    85    33   104 1   
    86    34    35 1   
    87    34    40 ar  
    88    35    36 2   
    89    35    72 1   
    90    36    38 1   
    91    36    66 1   
    92    37    48 1   
    93    37    51 1   
    94    37   105 1   
    95    38   106 1   
    96    38   107 1   
    97    38   108 1   
    98    39    66 2   
    99    39    72 1   
   100    39   109 1   
   101    40    41 ar  
   102    40   110 1   
   103    41   111 1   
   104    42    43 1   
   105    42   112 1   
   106    42   113 1   
   107    43    44 1   
   108    43    68 1   
   109    43   114 1   
   110    44    64 1   
   111    44   115 1   
   112    44   116 1   
   113    45    46 ar  
   114    45   117 1   
   115    46    47 ar  
   116    46   118 1   
   117    47    58 1   
   118    48   119 1   
   119    48   120 1   
   120    48   121 1   
   121    49    50 ar  
   122    49   122 1   
   123    50    52 ar  
   124    50   123 1   
   125    51    59 1   
   126    51   124 1   
   127    51   125 1   
   128    52    53 ar  
   129    52    59 1   
   130    53    60 1   
   131    54    60 1   
   132    54    67 2   
   133    60   126 1   
   134    61   131 1   
   135    62   127 1   
   136    63   128 1   
   137    65   129 1   
   138    68   130 1   
@<TRIPOS>SUBSTRUCTURE
     1 X6M         1 TEMP              0 ****  ****    0 ROOT
