@<TRIPOS>MOLECULE
X6O
   84    87     1     0     0
SMALL
abcg2


@<TRIPOS>ATOM
      1 N1         -19.7550    15.9530   -26.9270 n          1 X6O      -0.397800
      2 N3         -18.3330    13.9290   -24.4290 ns         1 X6O      -0.484900
      3 C4         -20.9880    17.5250   -25.6680 cx         1 X6O      -0.128700
      4 C5         -19.8170    18.3950   -25.2790 cx         1 X6O      -0.079000
      5 C6         -18.7890    18.8490   -26.2940 c3         1 X6O      -0.065100
      6 C7         -20.1070    19.4400   -24.2220 c3         1 X6O      -0.065100
      7 C8         -20.9610    16.8010   -26.9920 c5         1 X6O       0.138000
      8 C10        -19.7500    15.4040   -29.3370 c3         1 X6O       0.045700
      9 C17        -18.3280    12.6090   -23.8200 c3         1 X6O       0.115700
     10 C20        -18.6440     9.3270   -20.7650 cy         1 X6O       0.106500
     11 C21        -20.1850     9.4850   -20.6910 cy         1 X6O      -0.117400
     12 C22        -20.0280    10.9000   -21.3030 cy         1 X6O       0.106500
     13 C24        -18.3200    11.3790   -26.0540 c6         1 X6O      -0.136700
     14 C26        -20.1940    10.1810   -27.2300 c6         1 X6O      -0.093400
     15 C28        -17.3700    10.7660   -27.0800 c          1 X6O       0.565000
     16 C1         -19.4210    14.5140   -24.9530 c          1 X6O       0.599100
     17 O1         -20.5490    14.0250   -24.9280 o          1 X6O      -0.611100
     18 C2         -19.1690    15.8890   -25.5830 c5         1 X6O       0.060700
     19 N2         -18.6790    15.8380   -30.2250 ns         1 X6O      -0.475900
     20 O2         -19.7860    17.5720   -31.2260 o          1 X6O      -0.554100
     21 C3         -19.8870    16.9660   -24.7990 cx         1 X6O      -0.122700
     22 N4         -18.5710    10.6690   -21.3520 nj         1 X6O      -0.423800
     23 O4         -18.5740    13.5330   -21.6390 oh         1 X6O      -0.652000
     24 N5         -17.8670     9.8550   -27.9380 ns         1 X6O      -0.513900
     25 O6         -16.1920    11.1340   -27.1600 o          1 X6O      -0.576000
     26 C9         -19.1380    15.3180   -27.9370 c          1 X6O       0.589100
     27 C11        -20.4110    14.0680   -29.8020 c3         1 X6O      -0.050000
     28 C12        -19.3820    12.9460   -29.9840 c3         1 X6O      -0.090433
     29 C14        -21.1110    14.3320   -31.1410 c3         1 X6O      -0.090433
     30 C16        -17.5210    17.2290   -31.8540 c3         1 X6O       0.208000
     31 C18        -17.7140    12.7080   -22.4170 c3         1 X6O       0.086300
     32 C19        -17.4990    11.3250   -21.7910 c          1 X6O       0.575100
     33 C23        -17.5960    11.6130   -24.7240 c3         1 X6O      -0.084400
     34 C25        -19.6230    10.5920   -25.8800 c6         1 X6O      -0.076400
     35 C27        -19.2100     9.2790   -27.9530 c6         1 X6O       0.116000
     36 F1         -16.4670    16.4420   -31.5700 f          1 X6O      -0.101333
     37 F2         -17.1580    18.4980   -31.6140 f          1 X6O      -0.101333
     38 F3         -17.7690    17.1170   -33.1700 f          1 X6O      -0.101333
     39 H1         -17.4380    14.3730   -24.5730 hn         1 X6O       0.321500
     40 H2         -21.9610    17.7520   -25.2550 hc         1 X6O       0.103700
     41 H3         -17.8460    19.0800   -25.7930 hc         1 X6O       0.042367
     42 H4         -18.5840    18.1110   -27.0670 hc         1 X6O       0.042367
     43 H5         -19.1340    19.7610   -26.7870 hc         1 X6O       0.042367
     44 H6         -20.8510    19.0880   -23.5060 hc         1 X6O       0.042367
     45 H7         -19.1970    19.6920   -23.6710 hc         1 X6O       0.042367
     46 H8         -20.4860    20.3560   -24.6830 hc         1 X6O       0.042367
     47 H9         -20.8940    17.4820   -27.8410 h1         1 X6O       0.061700
     48 H10        -21.8570    16.1900   -27.1070 h1         1 X6O       0.061700
     49 H11        -20.5130    16.1750   -29.3780 h1         1 X6O       0.087700
     50 H12        -21.0030    13.4420   -27.7910 hc         1 X6O       0.043033
     51 H13        -22.2130    14.4270   -28.6270 hc         1 X6O       0.043033
     52 H14        -21.9620    12.7440   -29.0950 hc         1 X6O       0.043033
     53 H15        -19.3710    12.3240   -23.7090 h1         1 X6O       0.089700
     54 H16        -18.2770     8.5500   -21.4370 h1         1 X6O       0.061200
     55 H17        -18.1280     9.2500   -19.8070 h1         1 X6O       0.061200
     56 H18        -20.5900     9.4750   -19.6830 hc         1 X6O       0.062200
     57 H19        -20.7360     8.7860   -21.3150 hc         1 X6O       0.062200
     58 H20        -20.3080    11.7290   -20.6560 h1         1 X6O       0.061200
     59 H21        -20.4810    11.0370   -22.2840 h1         1 X6O       0.061200
     60 H22        -18.5640    12.3550   -26.4890 hc         1 X6O       0.087700
     61 H23        -20.3880    11.0700   -27.8320 hc         1 X6O       0.053700
     62 H24        -21.1400     9.6510   -27.1100 hc         1 X6O       0.053700
     63 H25        -18.0960    16.0670   -25.6620 h1         1 X6O       0.083700
     64 H26        -17.7870    15.3740   -30.1300 hn         1 X6O       0.356500
     65 H27        -20.0440    16.7830   -23.7440 hc         1 X6O       0.109700
     66 H28        -18.1160    13.7760   -20.8240 ho         1 X6O       0.451000
     67 H29        -17.2000     9.4920   -28.6040 hn         1 X6O       0.315500
     68 H30        -18.8670    12.7160   -29.0550 hc         1 X6O       0.043033
     69 H31        -19.8930    12.0440   -30.3260 hc         1 X6O       0.043033
     70 H32        -18.6360    13.2100   -30.7360 hc         1 X6O       0.043033
     71 H33        -21.8610    15.1190   -31.0460 hc         1 X6O       0.043033
     72 H34        -20.3960    14.6270   -31.9120 hc         1 X6O       0.043033
     73 H35        -21.6090    13.4210   -31.4790 hc         1 X6O       0.043033
     74 H36        -16.7180    13.1530   -22.4930 h1         1 X6O       0.066700
     75 H37        -17.4930    10.6570   -24.2070 hc         1 X6O       0.072700
     76 H38        -16.5900    11.9860   -24.9170 hc         1 X6O       0.072700
     77 H39        -20.3440    11.2000   -25.3340 hc         1 X6O       0.052200
     78 H40        -19.4300     9.6990   -25.2760 hc         1 X6O       0.052200
     79 H41        -19.1880     8.2920   -27.4770 h1         1 X6O       0.038700
     80 H42        -19.5010     9.1360   -28.9940 h1         1 X6O       0.038700
     81 O5         -16.3610    10.8420   -21.7210 o          1 X6O      -0.610100
     82 C13        -21.4560    13.6510   -28.7610 c3         1 X6O      -0.090433
     83 C15        -18.7970    16.8810   -31.0440 c          1 X6O       0.554100
     84 O3         -18.0920    14.6870   -27.7650 o          1 X6O      -0.616100
@<TRIPOS>BOND
     1     1     7 1   
     2     1    18 1   
     3     1    26 1   
     4     2     9 1   
     5     2    16 1   
     6     2    39 1   
     7     3     4 1   
     8     3     7 1   
     9     3    21 1   
    10     3    40 1   
    11     4     5 1   
    12     4     6 1   
    13     4    21 1   
    14     5    41 1   
    15     5    42 1   
    16     5    43 1   
    17     6    44 1   
    18     6    45 1   
    19     6    46 1   
    20     7    47 1   
    21     7    48 1   
    22     8    19 1   
    23     8    26 1   
    24     8    27 1   
    25     8    49 1   
    26     9    31 1   
    27     9    33 1   
    28     9    53 1   
    29    10    11 1   
    30    10    22 1   
    31    10    54 1   
    32    10    55 1   
    33    11    12 1   
    34    11    56 1   
    35    11    57 1   
    36    12    22 1   
    37    12    58 1   
    38    12    59 1   
    39    13    15 1   
    40    13    33 1   
    41    13    34 1   
    42    13    60 1   
    43    14    34 1   
    44    14    35 1   
    45    14    61 1   
    46    14    62 1   
    47    15    24 1   
    48    15    25 2   
    49    16    17 2   
    50    16    18 1   
    51    18    21 1   
    52    18    63 1   
    53    19    64 1   
    54    19    83 1   
    55    20    83 2   
    56    21    65 1   
    57    22    32 1   
    58    23    31 1   
    59    23    66 1   
    60    24    35 1   
    61    24    67 1   
    62    26    84 2   
    63    27    28 1   
    64    27    29 1   
    65    27    82 1   
    66    28    68 1   
    67    28    69 1   
    68    28    70 1   
    69    29    71 1   
    70    29    72 1   
    71    29    73 1   
    72    30    36 1   
    73    30    37 1   
    74    30    38 1   
    75    30    83 1   
    76    31    32 1   
    77    31    74 1   
    78    32    81 2   
    79    33    75 1   
    80    33    76 1   
    81    34    77 1   
    82    34    78 1   
    83    35    79 1   
    84    35    80 1   
    85    50    82 1   
    86    51    82 1   
    87    52    82 1   
@<TRIPOS>SUBSTRUCTURE
     1 X6O         1 TEMP              0 ****  ****    0 ROOT
