@<TRIPOS>MOLECULE
X6O
   84    87     1     0     0
SMALL
No Charge or Current Charge


@<TRIPOS>ATOM
      1 N1         -19.8230    16.1190   -26.9560 n          1 X6O      -0.397800
      2 N3         -18.5200    13.9460   -24.2880 ns         1 X6O      -0.484900
      3 C4         -20.3990    17.9380   -25.5280 cx         1 X6O      -0.128700
      4 C5         -19.0140    18.3520   -25.0530 cx         1 X6O      -0.079000
      5 C6         -17.8410    18.5790   -26.0240 c3         1 X6O      -0.065100
      6 C7         -18.9230    19.3570   -23.9060 c3         1 X6O      -0.065100
      7 C8         -20.5260    17.4270   -26.9700 c5         1 X6O       0.138000
      8 C10        -20.2860    15.6280   -29.4430 c3         1 X6O       0.045700
      9 C17        -18.4850    12.6010   -23.6940 c3         1 X6O       0.115700
     10 C20        -20.3040    10.1110   -20.5630 cy         1 X6O       0.106500
     11 C21        -20.4490     8.7360   -21.2890 cy         1 X6O      -0.117400
     12 C22        -19.3240     9.2480   -22.2420 cy         1 X6O       0.106500
     13 C24        -17.3530    11.6300   -25.8840 c6         1 X6O      -0.136700
     14 C26        -18.4650    10.3750   -27.8040 c6         1 X6O      -0.093400
     15 C28        -16.0350    10.9730   -26.3770 c          1 X6O       0.565000
     16 C1         -19.5310    14.4180   -25.1000 c          1 X6O       0.599100
     17 O1         -20.5720    13.8060   -25.3010 o          1 X6O      -0.611100
     18 C2         -19.1300    15.8160   -25.6670 c5         1 X6O       0.060700
     19 N2         -19.3810    15.4750   -30.6100 ns         1 X6O      -0.475900
     20 O2         -20.1310    17.2410   -31.8410 o          1 X6O      -0.554100
     21 C3         -19.5610    16.9670   -24.7400 cx         1 X6O      -0.122700
     22 N4         -19.7970    10.6270   -21.8790 nj         1 X6O      -0.423800
     23 O4         -19.4040    13.6030   -21.6210 oh         1 X6O      -0.652000
     24 N5         -16.1170     9.8300   -27.1390 ns         1 X6O      -0.513900
     25 O6         -14.9400    11.4420   -26.1100 o          1 X6O      -0.576000
     26 C9         -19.4280    15.4650   -28.1430 c          1 X6O       0.589100
     27 C11        -21.5170    14.6400   -29.5240 c3         1 X6O      -0.050000
     28 C12        -21.0540    13.1630   -29.3630 c3         1 X6O      -0.090433
     29 C14        -22.2410    14.7800   -30.8940 c3         1 X6O      -0.090433
     30 C16        -18.3230    15.8970   -32.8140 c3         1 X6O       0.208000
     31 C18        -18.4140    12.6670   -22.1350 c3         1 X6O       0.086300
     32 C19        -18.5680    11.2550   -21.4830 c          1 X6O       0.575100
     33 C23        -17.3240    11.7780   -24.3220 c3         1 X6O      -0.084400
     34 C25        -18.6430    10.9070   -26.3720 c6         1 X6O      -0.076400
     35 C27        -17.3130     9.3510   -27.8460 c6         1 X6O       0.116000
     36 F1         -18.5290    14.6370   -33.2650 f          1 X6O      -0.101333
     37 F2         -17.0620    15.9490   -32.3210 f          1 X6O      -0.101333
     38 F3         -18.3680    16.7210   -33.8890 f          1 X6O      -0.101333
     39 H1         -17.7250    14.5560   -24.1420 hn         1 X6O       0.321500
     40 H2         -21.2620    18.3960   -25.0480 hc         1 X6O       0.103700
     41 H3         -16.8820    18.4460   -25.5090 hc         1 X6O       0.042367
     42 H4         -17.8370    17.9030   -26.8840 hc         1 X6O       0.042367
     43 H5         -17.8630    19.6010   -26.4220 hc         1 X6O       0.042367
     44 H6         -19.7440    19.2290   -23.1900 hc         1 X6O       0.042367
     45 H7         -17.9820    19.2410   -23.3540 hc         1 X6O       0.042367
     46 H8         -18.9710    20.3870   -24.2800 hc         1 X6O       0.042367
     47 H9         -20.0790    18.1170   -27.6980 h1         1 X6O       0.061700
     48 H10        -21.5790    17.2990   -27.2490 h1         1 X6O       0.061700
     49 H11        -20.6720    16.6540   -29.4510 h1         1 X6O       0.087700
     50 H12        -22.1360    14.8220   -27.4140 hc         1 X6O       0.043033
     51 H13        -22.9310    15.9790   -28.5060 hc         1 X6O       0.043033
     52 H14        -23.4220    14.2800   -28.4920 hc         1 X6O       0.043033
     53 H15        -19.4210    12.0910   -23.9560 h1         1 X6O       0.089700
     54 H16        -19.6110    10.0920   -19.7130 h1         1 X6O       0.061200
     55 H17        -21.2590    10.5570   -20.2620 h1         1 X6O       0.061200
     56 H18        -21.4180     8.5850   -21.7770 hc         1 X6O       0.062200
     57 H19        -20.2060     7.8500   -20.6930 hc         1 X6O       0.062200
     58 H20        -19.4860     8.9990   -23.2970 h1         1 X6O       0.061200
     59 H21        -18.3130     8.9540   -21.9340 h1         1 X6O       0.061200
     60 H22        -17.3260    12.6470   -26.2970 hc         1 X6O       0.087700
     61 H23        -18.2500    11.2090   -28.4860 hc         1 X6O       0.053700
     62 H24        -19.3940     9.9080   -28.1590 hc         1 X6O       0.053700
     63 H25        -18.0420    15.8060   -25.8140 h1         1 X6O       0.083700
     64 H26        -18.6880    14.7340   -30.5740 hn         1 X6O       0.356500
     65 H27        -19.8400    16.7510   -23.7100 hc         1 X6O       0.109700
     66 H28        -20.2900    13.2540   -21.8690 ho         1 X6O       0.451000
     67 H29        -15.2270     9.4170   -27.3930 hn         1 X6O       0.315500
     68 H30        -20.6150    12.9850   -28.3740 hc         1 X6O       0.043033
     69 H31        -21.9020    12.4750   -29.4720 hc         1 X6O       0.043033
     70 H32        -20.3080    12.8930   -30.1200 hc         1 X6O       0.043033
     71 H33        -22.5430    15.8190   -31.0730 hc         1 X6O       0.043033
     72 H34        -21.6020    14.4610   -31.7250 hc         1 X6O       0.043033
     73 H35        -23.1460    14.1600   -30.9250 hc         1 X6O       0.043033
     74 H36        -17.4130    13.0280   -21.8660 h1         1 X6O       0.066700
     75 H37        -17.3070    10.7780   -23.8730 hc         1 X6O       0.072700
     76 H38        -16.3820    12.2520   -24.0190 hc         1 X6O       0.072700
     77 H39        -19.5020    11.5880   -26.3350 hc         1 X6O       0.052200
     78 H40        -18.8820    10.0670   -25.7050 hc         1 X6O       0.052200
     79 H41        -17.6370     8.4160   -27.3670 h1         1 X6O       0.038700
     80 H42        -17.0500     9.1230   -28.8880 h1         1 X6O       0.038700
     81 O5         -17.6570    10.8810   -20.7440 o          1 X6O      -0.610100
     82 C13        -22.5580    14.9520   -28.4160 c3         1 X6O      -0.090433
     83 C15        -19.3680    16.2870   -31.7310 c          1 X6O       0.554100
     84 O3         -18.4420    14.7330   -28.1330 o          1 X6O      -0.616100
@<TRIPOS>BOND
     1     1     7 1   
     2     1    18 1   
     3     1    26 1   
     4     2     9 1   
     5     2    16 1   
     6     2    39 1   
     7     3     4 1   
     8     3     7 1   
     9     3    21 1   
    10     3    40 1   
    11     4     5 1   
    12     4     6 1   
    13     4    21 1   
    14     5    41 1   
    15     5    42 1   
    16     5    43 1   
    17     6    44 1   
    18     6    45 1   
    19     6    46 1   
    20     7    47 1   
    21     7    48 1   
    22     8    19 1   
    23     8    26 1   
    24     8    27 1   
    25     8    49 1   
    26     9    31 1   
    27     9    33 1   
    28     9    53 1   
    29    10    11 1   
    30    10    22 1   
    31    10    54 1   
    32    10    55 1   
    33    11    12 1   
    34    11    56 1   
    35    11    57 1   
    36    12    22 1   
    37    12    58 1   
    38    12    59 1   
    39    13    15 1   
    40    13    33 1   
    41    13    34 1   
    42    13    60 1   
    43    14    34 1   
    44    14    35 1   
    45    14    61 1   
    46    14    62 1   
    47    15    24 1   
    48    15    25 2   
    49    16    17 2   
    50    16    18 1   
    51    18    21 1   
    52    18    63 1   
    53    19    64 1   
    54    19    83 1   
    55    20    83 2   
    56    21    65 1   
    57    22    32 1   
    58    23    31 1   
    59    23    66 1   
    60    24    35 1   
    61    24    67 1   
    62    26    84 2   
    63    27    28 1   
    64    27    29 1   
    65    27    82 1   
    66    28    68 1   
    67    28    69 1   
    68    28    70 1   
    69    29    71 1   
    70    29    72 1   
    71    29    73 1   
    72    30    36 1   
    73    30    37 1   
    74    30    38 1   
    75    30    83 1   
    76    31    32 1   
    77    31    74 1   
    78    32    81 2   
    79    33    75 1   
    80    33    76 1   
    81    34    77 1   
    82    34    78 1   
    83    35    79 1   
    84    35    80 1   
    85    50    82 1   
    86    51    82 1   
    87    52    82 1   
@<TRIPOS>SUBSTRUCTURE
     1 X6O         1 TEMP              0 ****  ****    0 ROOT
