@<TRIPOS>MOLECULE
X6P
   25    26     1     0     0
SMALL
No Charge or Current Charge


@<TRIPOS>ATOM
      1 N            2.3940     1.0250    -0.2640 na         1 X6P       0.038000
      2 C            1.7010     2.1580    -0.8950 c3         1 X6P       0.054900
      3 O           -2.8630     1.8610     0.7700 o          1 X6P      -0.721000
      4 C1           1.8330    -0.2170     0.0560 cc         1 X6P      -0.080000
      5 C10          4.0220    -0.2370     0.5610 cd         1 X6P      -0.191000
      6 C11          3.7580     1.0080     0.0510 cc         1 X6P      -0.222000
      7 C2           0.4430    -0.6770    -0.0370 ca         1 X6P      -0.068000
      8 C3           0.1640    -2.0090    -0.4030 ca         1 X6P      -0.116000
      9 C4          -1.1620    -2.4570    -0.4950 ca         1 X6P      -0.152000
     10 C5          -2.2260    -1.5830    -0.2180 ca         1 X6P      -0.078000
     11 C6          -1.9750    -0.2440     0.1610 ca         1 X6P      -0.140600
     12 C7          -3.1230     0.7030     0.4720 c          1 X6P       0.713600
     13 C8          -0.6310     0.1920     0.2490 ca         1 X6P      -0.077000
     14 C9           2.8350    -0.9940     0.5670 cd         1 X6P      -0.194000
     15 O1          -4.2680     0.2770     0.4120 o          1 X6P      -0.721000
     16 H            1.2510     2.7890    -0.1200 h1         1 X6P       0.052033
     17 H1           2.4180     2.7530    -1.4730 h1         1 X6P       0.052033
     18 H2           0.9190     1.7870    -1.5680 h1         1 X6P       0.052033
     19 H8           4.9920    -0.5800     0.9080 ha         1 X6P       0.114000
     20 H9           4.4070     1.8590    -0.1140 h4         1 X6P       0.128000
     21 H3           0.9750    -2.6960    -0.6290 ha         1 X6P       0.091000
     22 H4          -1.3680    -3.4850    -0.7840 ha         1 X6P       0.087000
     23 H5          -3.2470    -1.9520    -0.2950 ha         1 X6P       0.127000
     24 H6          -0.4210     1.2120     0.5600 ha         1 X6P       0.127000
     25 H7           2.7330    -2.0130     0.9300 ha         1 X6P       0.125000
@<TRIPOS>BOND
     1     1     2 1   
     2     1     4 1   
     3     1     6 1   
     4     2    16 1   
     5     2    17 1   
     6     2    18 1   
     7     3    12 1   
     8     4     7 1   
     9     4    14 2   
    10     5     6 2   
    11     5    14 1   
    12     5    19 1   
    13     6    20 1   
    14     7     8 ar  
    15     7    13 ar  
    16     8     9 ar  
    17     8    21 1   
    18     9    10 ar  
    19     9    22 1   
    20    10    11 ar  
    21    10    23 1   
    22    11    12 1   
    23    11    13 ar  
    24    12    15 1   
    25    13    24 1   
    26    14    25 1   
@<TRIPOS>SUBSTRUCTURE
     1 X6P         1 TEMP              0 ****  ****    0 ROOT
