@<TRIPOS>MOLECULE
X6P
   25    26     1     0     0
SMALL
bcc


@<TRIPOS>ATOM
      1 N            2.3520     0.9500    -0.2560 na         1 X6P      -0.034100
      2 C            1.6410     2.0070    -0.9410 c3         1 X6P       0.025600
      3 O           -2.7370     1.8590     0.9490 o          1 X6P      -0.826300
      4 C1           1.8490    -0.2640     0.1320 cc         1 X6P      -0.029300
      5 C10          4.0470    -0.1830     0.6290 cd         1 X6P      -0.209000
      6 C11          3.6800     1.0020     0.0420 cc         1 X6P      -0.189300
      7 C2           0.4500    -0.6670    -0.0260 ca         1 X6P      -0.068000
      8 C3           0.1560    -1.9580    -0.4740 ca         1 X6P      -0.134000
      9 C4          -1.1610    -2.3760    -0.5930 ca         1 X6P      -0.170000
     10 C5          -2.2020    -1.5130    -0.2770 ca         1 X6P      -0.096000
     11 C6          -1.9350    -0.2230     0.1750 ca         1 X6P      -0.140600
     12 C7          -3.0680     0.7280     0.5450 c          1 X6P       0.924200
     13 C8          -0.6100     0.1810     0.2980 ca         1 X6P      -0.095000
     14 C9           2.8870    -0.9880     0.6820 cd         1 X6P      -0.212000
     15 O1          -4.2270     0.2910     0.4120 o          1 X6P      -0.826300
     16 H            1.1040     2.6530    -0.2460 h1         1 X6P       0.052033
     17 H1           2.3550     2.6130    -1.4920 h1         1 X6P       0.052033
     18 H2           0.9290     1.5900    -1.6490 h1         1 X6P       0.052033
     19 H8           5.0340    -0.4390     0.9790 ha         1 X6P       0.132000
     20 H9           4.2660     1.8740    -0.2020 h4         1 X6P       0.146000
     21 H3           0.9620    -2.6300    -0.7390 ha         1 X6P       0.109000
     22 H4          -1.3770    -3.3770    -0.9450 ha         1 X6P       0.105000
     23 H5          -3.2270    -1.8420    -0.3800 ha         1 X6P       0.145000
     24 H6          -0.4100     1.1730     0.6820 ha         1 X6P       0.145000
     25 H7           2.8010    -1.9810     1.0970 ha         1 X6P       0.143000
@<TRIPOS>BOND
     1     1     2 1   
     2     1     4 1   
     3     1     6 1   
     4     2    16 1   
     5     2    17 1   
     6     2    18 1   
     7     3    12 1   
     8     4     7 1   
     9     4    14 2   
    10     5     6 2   
    11     5    14 1   
    12     5    19 1   
    13     6    20 1   
    14     7     8 ar  
    15     7    13 ar  
    16     8     9 ar  
    17     8    21 1   
    18     9    10 ar  
    19     9    22 1   
    20    10    11 ar  
    21    10    23 1   
    22    11    12 1   
    23    11    13 ar  
    24    12    15 1   
    25    13    24 1   
    26    14    25 1   
@<TRIPOS>SUBSTRUCTURE
     1 X6P         1 TEMP              0 ****  ****    0 ROOT
