@<TRIPOS>MOLECULE
X6Q
   51    53     1     0     0
SMALL
abcg2


@<TRIPOS>ATOM
      1 O25         49.3770   -16.4190    -6.3690 os         1 X6Q      -0.378100
      2 C10         50.3130   -12.0830    -1.4750 ca         1 X6Q      -0.120000
      3 C11         50.1810   -13.4590    -1.6260 ca         1 X6Q      -0.119500
      4 C14         55.6900   -12.9410    -6.0470 ca         1 X6Q      -0.088000
      5 C15         54.5320   -13.2620    -6.7500 ca         1 X6Q      -0.134000
      6 C16         53.4440   -13.8310    -6.0860 cp         1 X6Q      -0.027000
      7 C12         51.3130   -14.2530    -1.7820 ca         1 X6Q      -0.091000
      8 C13         53.5570   -14.0780    -4.7120 ca         1 X6Q      -0.192000
      9 C17         52.1700   -14.1300    -6.7790 cp         1 X6Q      -0.017000
     10 C18         51.7370   -13.3550    -7.8620 ca         1 X6Q      -0.095000
     11 C19         50.5030   -13.5830    -8.4590 ca         1 X6Q      -0.112600
     12 C20         50.0330   -12.7120    -9.6270 c          1 X6Q       0.705600
     13 C03         55.8060   -13.1770    -4.6810 ca         1 X6Q      -0.121600
     14 C04         54.7170   -13.7570    -4.0180 ca         1 X6Q       0.114100
     15 C06         53.8040   -14.5630    -1.9400 c3         1 X6Q       0.204900
     16 C07         52.5850   -13.6840    -1.7850 ca         1 X6Q      -0.105300
     17 C08         52.7120   -12.3050    -1.6300 ca         1 X6Q      -0.091000
     18 C09         51.5820   -11.5080    -1.4790 ca         1 X6Q      -0.119500
     19 C23         49.6730   -14.5980    -7.9770 ca         1 X6Q      -0.152000
     20 C24         50.1050   -15.3860    -6.9180 ca         1 X6Q       0.054100
     21 C26         48.0040   -16.5320    -6.7090 c3         1 X6Q       0.085600
     22 C27         47.1130   -15.4640    -6.0780 c          1 X6Q       0.571100
     23 C31         51.3430   -15.1590    -6.3260 ca         1 X6Q      -0.153000
     24 N28         47.6330   -14.7980    -5.0420 ns         1 X6Q      -0.491900
     25 O01         57.2290   -11.6030    -3.6340 o          1 X6Q      -0.727500
     26 O05         54.8690   -13.9530    -2.6720 os         1 X6Q      -0.320100
     27 O21         48.8710   -12.9200   -10.0610 o          1 X6Q      -0.726000
     28 O22         50.8440   -11.8570   -10.0630 o          1 X6Q      -0.726000
     29 O30         45.9720   -15.2850    -6.5090 o          1 X6Q      -0.636100
     30 O32         57.8760   -13.7540    -3.6920 o          1 X6Q      -0.727500
     31 H3          56.5260   -12.4980    -6.5750 ha         1 X6Q       0.108000
     32 H4          54.4830   -13.0740    -7.8140 ha         1 X6Q       0.107000
     33 H5          51.2060   -15.3230    -1.9210 ha         1 X6Q       0.125000
     34 H6          52.7090   -14.4830    -4.1860 ha         1 X6Q       0.099000
     35 H7          52.3410   -12.5390    -8.2290 ha         1 X6Q       0.139000
     36 H8          53.5280   -15.5160    -2.3980 h1         1 X6Q       0.046700
     37 H9          54.2420   -14.7760    -0.9640 h1         1 X6Q       0.046700
     38 H10         53.6960   -11.8530    -1.6450 ha         1 X6Q       0.125000
     39 H11         51.6910   -10.4370    -1.3660 ha         1 X6Q       0.101000
     40 H12         48.7110   -14.7340    -8.4460 ha         1 X6Q       0.135000
     41 H13         47.6830   -17.5020    -6.3260 h1         1 X6Q       0.069700
     42 H14         47.8430   -16.5240    -7.7870 h1         1 X6Q       0.069700
     43 H18         51.6420   -15.7960    -5.5040 ha         1 X6Q       0.103000
     44 H19         48.5690   -15.0260    -4.7490 hn         1 X6Q       0.339500
     45 C02         57.0800   -12.8140    -3.9320 c          1 X6Q       0.721600
     46 C29         46.9110   -13.7540    -4.3350 c3         1 X6Q       0.099300
     47 H1          49.4340   -11.4610    -1.3620 ha         1 X6Q       0.096000
     48 H15         47.5730   -13.3280    -3.5860 h1         1 X6Q       0.035033
     49 H16         46.5980   -12.9690    -5.0250 h1         1 X6Q       0.035033
     50 H17         46.0240   -14.1560    -3.8420 h1         1 X6Q       0.035033
     51 H2          49.1990   -13.9140    -1.6340 ha         1 X6Q       0.101000
@<TRIPOS>BOND
     1     1    20 1   
     2     1    21 1   
     3     2     3 ar  
     4     2    18 ar  
     5     2    47 1   
     6     3     7 ar  
     7     3    51 1   
     8     4     5 ar  
     9     4    13 ar  
    10     4    31 1   
    11     5     6 ar  
    12     5    32 1   
    13     6     8 ar  
    14     6     9 1   
    15     7    16 ar  
    16     7    33 1   
    17     8    14 ar  
    18     8    34 1   
    19     9    10 ar  
    20     9    23 ar  
    21    10    11 ar  
    22    10    35 1   
    23    11    12 1   
    24    11    19 ar  
    25    12    27 1   
    26    12    28 1   
    27    13    14 ar  
    28    13    45 1   
    29    14    26 1   
    30    15    16 1   
    31    15    26 1   
    32    15    36 1   
    33    15    37 1   
    34    16    17 ar  
    35    17    18 ar  
    36    17    38 1   
    37    18    39 1   
    38    19    20 ar  
    39    19    40 1   
    40    20    23 ar  
    41    21    22 1   
    42    21    41 1   
    43    21    42 1   
    44    22    24 1   
    45    22    29 2   
    46    23    43 1   
    47    24    44 1   
    48    24    46 1   
    49    25    45 1   
    50    30    45 1   
    51    46    48 1   
    52    46    49 1   
    53    46    50 1   
@<TRIPOS>SUBSTRUCTURE
     1 X6Q         1 TEMP              0 ****  ****    0 ROOT
