@<TRIPOS>MOLECULE
X6Q
   51    53     1     0     0
SMALL
No Charge or Current Charge


@<TRIPOS>ATOM
      1 O25         49.3640   -16.6190    -6.6840 os         1 X6Q      -0.378100
      2 C10         50.8060   -11.4470    -1.2830 ca         1 X6Q      -0.120000
      3 C11         50.4040   -12.7510    -1.6150 ca         1 X6Q      -0.119500
      4 C14         55.6460   -12.9560    -6.0160 ca         1 X6Q      -0.088000
      5 C15         54.4440   -13.2210    -6.6900 ca         1 X6Q      -0.134000
      6 C16         53.3490   -13.8210    -6.0240 cp         1 X6Q      -0.027000
      7 C12         51.3630   -13.7670    -1.7690 ca         1 X6Q      -0.091000
      8 C13         53.5050   -14.1390    -4.6520 ca         1 X6Q      -0.192000
      9 C17         52.0590   -14.0980    -6.7370 cp         1 X6Q      -0.017000
     10 C18         51.5700   -13.2170    -7.7330 ca         1 X6Q      -0.095000
     11 C19         50.3460   -13.4520    -8.4030 ca         1 X6Q      -0.112600
     12 C20         49.8470   -12.4840    -9.4710 c          1 X6Q       0.705600
     13 C03         55.7870   -13.2800    -4.6520 ca         1 X6Q      -0.121600
     14 C04         54.7070   -13.8650    -3.9600 ca         1 X6Q       0.114100
     15 C06         53.7770   -14.5920    -1.7660 c3         1 X6Q       0.204900
     16 C07         52.7340   -13.4850    -1.5970 ca         1 X6Q      -0.105300
     17 C08         53.1300   -12.1740    -1.2580 ca         1 X6Q      -0.091000
     18 C09         52.1690   -11.1600    -1.1030 ca         1 X6Q      -0.119500
     19 C23         49.5960   -14.6010    -8.0550 ca         1 X6Q      -0.152000
     20 C24         50.0630   -15.4900    -7.0650 ca         1 X6Q       0.054100
     21 C26         47.9850   -16.8640    -7.0740 c3         1 X6Q       0.085600
     22 C27         46.9940   -15.8530    -6.4420 c          1 X6Q       0.571100
     23 C31         51.2830   -15.2390    -6.4240 ca         1 X6Q      -0.153000
     24 N28         47.4290   -15.2350    -5.2900 ns         1 X6Q      -0.491900
     25 O01         57.4640   -11.8220    -3.9130 o          1 X6Q      -0.727500
     26 O05         54.8560   -14.1410    -2.6110 os         1 X6Q      -0.320100
     27 O21         48.7920   -12.7290   -10.0390 o          1 X6Q      -0.726000
     28 O22         50.5210   -11.4960    -9.7280 o          1 X6Q      -0.726000
     29 O30         45.8880   -15.6220    -6.9180 o          1 X6Q      -0.636100
     30 O32         57.7580   -13.9240    -3.5470 o          1 X6Q      -0.727500
     31 H3          56.4750   -12.5000    -6.5530 ha         1 X6Q       0.108000
     32 H4          54.3680   -12.9720    -7.7460 ha         1 X6Q       0.107000
     33 H5          51.0400   -14.7740    -2.0260 ha         1 X6Q       0.125000
     34 H6          52.6650   -14.5860    -4.1340 ha         1 X6Q       0.099000
     35 H7          52.1460   -12.3280    -7.9760 ha         1 X6Q       0.139000
     36 H8          53.3150   -15.4990    -2.1760 h1         1 X6Q       0.046700
     37 H9          54.1690   -14.8500    -0.7750 h1         1 X6Q       0.046700
     38 H10         54.1840   -11.9420    -1.1170 ha         1 X6Q       0.125000
     39 H11         52.4820   -10.1510    -0.8440 ha         1 X6Q       0.101000
     40 H12         48.6560   -14.7880    -8.5650 ha         1 X6Q       0.135000
     41 H13         47.6790   -17.8580    -6.7290 h1         1 X6Q       0.069700
     42 H14         47.8680   -16.8400    -8.1640 h1         1 X6Q       0.069700
     43 H18         51.6330   -15.9420    -5.6740 ha         1 X6Q       0.103000
     44 H19         48.3690   -15.4710    -4.9880 hn         1 X6Q       0.339500
     45 C02         57.0850   -12.9850    -3.9500 c          1 X6Q       0.721600
     46 C29         46.6670   -14.2420    -4.5330 c3         1 X6Q       0.099300
     47 H1          50.0630   -10.6620    -1.1630 ha         1 X6Q       0.096000
     48 H15         47.2560   -13.9090    -3.6700 h1         1 X6Q       0.035033
     49 H16         46.4460   -13.3800    -5.1750 h1         1 X6Q       0.035033
     50 H17         45.7270   -14.6870    -4.1820 h1         1 X6Q       0.035033
     51 H2          49.3480   -12.9760    -1.7530 ha         1 X6Q       0.101000
@<TRIPOS>BOND
     1     1    20 1   
     2     1    21 1   
     3     2     3 ar  
     4     2    18 ar  
     5     2    47 1   
     6     3     7 ar  
     7     3    51 1   
     8     4     5 ar  
     9     4    13 ar  
    10     4    31 1   
    11     5     6 ar  
    12     5    32 1   
    13     6     8 ar  
    14     6     9 1   
    15     7    16 ar  
    16     7    33 1   
    17     8    14 ar  
    18     8    34 1   
    19     9    10 ar  
    20     9    23 ar  
    21    10    11 ar  
    22    10    35 1   
    23    11    12 1   
    24    11    19 ar  
    25    12    27 1   
    26    12    28 1   
    27    13    14 ar  
    28    13    45 1   
    29    14    26 1   
    30    15    16 1   
    31    15    26 1   
    32    15    36 1   
    33    15    37 1   
    34    16    17 ar  
    35    17    18 ar  
    36    17    38 1   
    37    18    39 1   
    38    19    20 ar  
    39    19    40 1   
    40    20    23 ar  
    41    21    22 1   
    42    21    41 1   
    43    21    42 1   
    44    22    24 1   
    45    22    29 2   
    46    23    43 1   
    47    24    44 1   
    48    24    46 1   
    49    25    45 1   
    50    30    45 1   
    51    46    48 1   
    52    46    49 1   
    53    46    50 1   
@<TRIPOS>SUBSTRUCTURE
     1 X6Q         1 TEMP              0 ****  ****    0 ROOT
