@<TRIPOS>MOLECULE
X6S
   83    86     1     0     0
SMALL
bcc


@<TRIPOS>ATOM
      1 C12          3.2660   -18.2020   -45.9460 c3         1 X6S      -0.063600
      2 C10          3.1010   -15.8500   -44.3920 c3         1 X6S      -0.028300
      3 C14          3.4440   -20.2740   -47.3750 ca         1 X6S      -0.087300
      4 C15          2.4240   -21.1910   -47.6120 ca         1 X6S      -0.121500
      5 C17          3.9770   -23.0200   -47.4310 ca         1 X6S      -0.127000
      6 C20          2.2640   -18.8680   -45.0150 c          1 X6S       0.665100
      7 C01          4.7430   -11.2630   -46.8260 c3         1 X6S      -0.108767
      8 C02          6.0710   -11.7400   -46.2490 c3         1 X6S       0.202800
      9 C03          7.1390   -11.7220   -47.3360 c3         1 X6S      -0.108767
     10 C04          6.5180   -10.8860   -45.0690 c3         1 X6S      -0.108767
     11 C06          5.1810   -13.6090   -44.9440 c          1 X6S       0.768100
     12 C09          4.5550   -15.7730   -43.9300 c3         1 X6S       0.146700
     13 C13          3.1650   -18.7960   -47.3560 c3         1 X6S      -0.012100
     14 C16          2.6880   -22.5550   -47.6450 ca         1 X6S      -0.133000
     15 C18          5.0010   -22.1140   -47.1840 ca         1 X6S      -0.133000
     16 C19          4.7350   -20.7520   -47.1560 ca         1 X6S      -0.121500
     17 C23          1.9980   -20.1410   -42.9320 c3         1 X6S       0.108000
     18 C24          1.4770   -21.4950   -43.3990 c3         1 X6S      -0.092400
     19 C25          2.5540   -22.4140   -43.9700 c3         1 X6S      -0.031100
     20 C26          3.6950   -22.7130   -43.0370 ca         1 X6S      -0.185600
     21 C27          5.0180   -22.5230   -43.4160 ca         1 X6S      -0.097000
     22 C28          6.0390   -22.8630   -42.5420 ca         1 X6S      -0.244300
     23 C29          5.7030   -23.3760   -41.3010 ca         1 X6S       0.389200
     24 C31          3.4790   -23.2290   -41.7600 ca         1 X6S       0.397200
     25 C32          4.6360   -15.3890   -42.4390 c3         1 X6S      -0.048100
     26 C33          4.1760   -16.5000   -41.5360 ca         1 X6S      -0.073300
     27 C34          4.9890   -17.6500   -41.3100 ca         1 X6S      -0.035000
     28 C35          6.2800   -17.7940   -41.8770 ca         1 X6S      -0.132000
     29 C36          7.0400   -18.9060   -41.6330 ca         1 X6S      -0.127000
     30 C37          6.5490   -19.9400   -40.8130 ca         1 X6S      -0.128000
     31 C38          5.3080   -19.8350   -40.2500 ca         1 X6S      -0.113000
     32 C39          4.5050   -18.6930   -40.4740 ca         1 X6S      -0.042000
     33 C40          3.2310   -18.5690   -39.8720 ca         1 X6S      -0.120000
     34 C41          2.4710   -17.4560   -40.0910 ca         1 X6S      -0.122000
     35 C42          2.9500   -16.4250   -40.9240 ca         1 X6S      -0.117000
     36 N08          5.3750   -14.9340   -44.7760 ns         1 X6S      -0.567900
     37 N22          2.7900   -19.4400   -43.9230 ns         1 X6S      -0.566900
     38 N30          4.4450   -23.5530   -40.9100 nb         1 X6S      -0.666000
     39 O05          6.0080   -13.1430   -45.8800 os         1 X6S      -0.456900
     40 O07          4.3750   -12.9480   -44.3190 o          1 X6S      -0.602000
     41 O21          1.0680   -18.8650   -45.2590 o          1 X6S      -0.587100
     42 S11          2.9000   -16.4260   -46.0940 ss         1 X6S      -0.291200
     43 H1           4.2900   -18.3290   -45.5830 h1         1 X6S       0.063700
     44 H2           2.6370   -14.8640   -44.3620 h1         1 X6S       0.096200
     45 H3           2.5270   -16.4880   -43.7180 h1         1 X6S       0.096200
     46 H4           1.4150   -20.8340   -47.7830 ha         1 X6S       0.134500
     47 H5           4.1840   -24.0820   -47.4550 ha         1 X6S       0.132000
     48 H6           4.4210   -11.9050   -47.6480 hc         1 X6S       0.049478
     49 H7           3.9530   -11.2250   -46.0800 hc         1 X6S       0.049478
     50 H8           4.8690   -10.2570   -47.2280 hc         1 X6S       0.049478
     51 H9           8.0950   -12.0890   -46.9610 hc         1 X6S       0.049478
     52 H10          6.8450   -12.3330   -48.1910 hc         1 X6S       0.049478
     53 H11          7.2890   -10.7030   -47.6920 hc         1 X6S       0.049478
     54 H12          7.4460   -11.2680   -44.6390 hc         1 X6S       0.049478
     55 H13          6.7120    -9.8700   -45.4160 hc         1 X6S       0.049478
     56 H14          5.7670   -10.8300   -44.2840 hc         1 X6S       0.049478
     57 H15          4.9930   -16.7670   -44.0340 h1         1 X6S       0.045700
     58 H16          3.8790   -18.2750   -47.9980 hc         1 X6S       0.071700
     59 H17          2.1700   -18.5980   -47.7570 hc         1 X6S       0.071700
     60 H18          1.8820   -23.2530   -47.8340 ha         1 X6S       0.131500
     61 H19          6.0110   -22.4670   -47.0180 ha         1 X6S       0.131500
     62 H20          5.5440   -20.0520   -46.9820 ha         1 X6S       0.134500
     63 H21          2.6320   -20.2580   -42.0550 h1         1 X6S       0.053200
     64 H22          1.1610   -19.5120   -42.6240 h1         1 X6S       0.053200
     65 H23          0.9750   -21.9660   -42.5490 hc         1 X6S       0.055200
     66 H24          0.7110   -21.3520   -44.1620 hc         1 X6S       0.055200
     67 H25          2.0830   -23.3540   -44.2700 hc         1 X6S       0.056700
     68 H26          2.9490   -21.9800   -44.8900 hc         1 X6S       0.056700
     69 H27          5.2510   -22.1230   -44.3960 ha         1 X6S       0.138000
     70 H28          7.0770   -22.7280   -42.8160 ha         1 X6S       0.138000
     71 H29          6.4760   -23.6520   -40.5930 h4         1 X6S       0.016100
     72 H30          2.4640   -23.3980   -41.4120 h4         1 X6S       0.017100
     73 H31          5.6670   -15.1070   -42.2120 hc         1 X6S       0.071200
     74 H32          4.0280   -14.5040   -42.2540 hc         1 X6S       0.071200
     75 H33          6.6870   -17.0120   -42.5050 ha         1 X6S       0.132000
     76 H34          8.0250   -18.9930   -42.0710 ha         1 X6S       0.130000
     77 H35          7.1610   -20.8130   -40.6290 ha         1 X6S       0.132000
     78 H36          4.9230   -20.6290   -39.6210 ha         1 X6S       0.140000
     79 H37          2.8690   -19.3700   -39.2370 ha         1 X6S       0.135000
     80 H38          1.4970   -17.3580   -39.6290 ha         1 X6S       0.136000
     81 H39          2.3280   -15.5520   -41.0830 ha         1 X6S       0.137000
     82 H40          6.0080   -15.3980   -45.4060 hn         1 X6S       0.327500
     83 H41          3.7870   -19.4130   -43.7870 hn         1 X6S       0.316500
@<TRIPOS>BOND
     1     1     6 1   
     2     1    13 1   
     3     1    42 1   
     4     1    43 1   
     5     2    12 1   
     6     2    42 1   
     7     2    44 1   
     8     2    45 1   
     9     3     4 ar  
    10     3    13 1   
    11     3    16 ar  
    12     4    14 ar  
    13     4    46 1   
    14     5    14 ar  
    15     5    15 ar  
    16     5    47 1   
    17     6    37 1   
    18     6    41 2   
    19     7     8 1   
    20     7    48 1   
    21     7    49 1   
    22     7    50 1   
    23     8     9 1   
    24     8    10 1   
    25     8    39 1   
    26     9    51 1   
    27     9    52 1   
    28     9    53 1   
    29    10    54 1   
    30    10    55 1   
    31    10    56 1   
    32    11    36 1   
    33    11    39 1   
    34    11    40 2   
    35    12    25 1   
    36    12    36 1   
    37    12    57 1   
    38    13    58 1   
    39    13    59 1   
    40    14    60 1   
    41    15    16 ar  
    42    15    61 1   
    43    16    62 1   
    44    17    18 1   
    45    17    37 1   
    46    17    63 1   
    47    17    64 1   
    48    18    19 1   
    49    18    65 1   
    50    18    66 1   
    51    19    20 1   
    52    19    67 1   
    53    19    68 1   
    54    20    21 ar  
    55    20    24 ar  
    56    21    22 ar  
    57    21    69 1   
    58    22    23 ar  
    59    22    70 1   
    60    23    38 ar  
    61    23    71 1   
    62    24    38 ar  
    63    24    72 1   
    64    25    26 1   
    65    25    73 1   
    66    25    74 1   
    67    26    27 ar  
    68    26    35 ar  
    69    27    28 ar  
    70    27    32 ar  
    71    28    29 ar  
    72    28    75 1   
    73    29    30 ar  
    74    29    76 1   
    75    30    31 ar  
    76    30    77 1   
    77    31    32 ar  
    78    31    78 1   
    79    32    33 ar  
    80    33    34 ar  
    81    33    79 1   
    82    34    35 ar  
    83    34    80 1   
    84    35    81 1   
    85    36    82 1   
    86    37    83 1   
@<TRIPOS>SUBSTRUCTURE
     1 X6S         1 TEMP              0 ****  ****    0 ROOT
