@<TRIPOS>MOLECULE
X6S
   83    86     1     0     0
SMALL
No Charge or Current Charge


@<TRIPOS>ATOM
      1 C12          2.9310   -18.0090   -45.9540 c3         1 X6S      -0.015700
      2 C10          2.8160   -15.7290   -44.1900 c3         1 X6S       0.019600
      3 C14          3.1380   -20.0580   -47.4680 ca         1 X6S      -0.087300
      4 C15          2.2020   -21.0990   -47.6360 ca         1 X6S      -0.103500
      5 C17          4.0070   -22.7320   -47.6900 ca         1 X6S      -0.109000
      6 C20          2.1910   -18.7990   -44.8460 c          1 X6S       0.598100
      7 C01          5.0290   -11.6050   -47.0930 c3         1 X6S      -0.108767
      8 C02          6.3150   -12.1260   -46.4000 c3         1 X6S       0.226000
      9 C03          7.4450   -12.2880   -47.4400 c3         1 X6S      -0.108767
     10 C04          6.7920   -11.2130   -45.2400 c3         1 X6S      -0.108767
     11 C06          5.1480   -13.7520   -44.9550 c          1 X6S       0.652100
     12 C09          4.3170   -15.8460   -43.8090 c3         1 X6S       0.146700
     13 C13          2.6680   -18.6110   -47.3520 c3         1 X6S      -0.012100
     14 C16          2.6360   -22.4310   -47.7470 ca         1 X6S      -0.115000
     15 C18          4.9440   -21.6990   -47.5230 ca         1 X6S      -0.115000
     16 C19          4.5110   -20.3660   -47.4130 ca         1 X6S      -0.103500
     17 C23          2.5580   -20.2110   -42.7910 c3         1 X6S       0.108000
     18 C24          2.0110   -21.5910   -43.2160 c3         1 X6S      -0.092400
     19 C25          3.0040   -22.4380   -44.0460 c3         1 X6S      -0.031100
     20 C26          4.3200   -22.7050   -43.3260 ca         1 X6S      -0.120300
     21 C27          5.5170   -22.1140   -43.7720 ca         1 X6S      -0.079000
     22 C28          6.7020   -22.4040   -43.0780 ca         1 X6S      -0.161000
     23 C29          6.6550   -23.2660   -41.9690 ca         1 X6S       0.323900
     24 C31          4.3690   -23.5560   -42.2010 ca         1 X6S       0.331900
     25 C32          4.5820   -15.4560   -42.3330 c3         1 X6S      -0.048100
     26 C33          3.9220   -16.4090   -41.3310 ca         1 X6S      -0.073300
     27 C34          4.4760   -17.6730   -40.9890 ca         1 X6S      -0.035000
     28 C35          5.6750   -18.1510   -41.5720 ca         1 X6S      -0.114000
     29 C36          6.2020   -19.4000   -41.2050 ca         1 X6S      -0.109000
     30 C37          5.5460   -20.1910   -40.2510 ca         1 X6S      -0.110000
     31 C38          4.3550   -19.7350   -39.6660 ca         1 X6S      -0.095000
     32 C39          3.8170   -18.4870   -40.0330 ca         1 X6S      -0.042000
     33 C40          2.6160   -18.0570   -39.4420 ca         1 X6S      -0.102000
     34 C41          2.0660   -16.8160   -39.7890 ca         1 X6S      -0.104000
     35 C42          2.7170   -15.9970   -40.7230 ca         1 X6S      -0.099000
     36 N08          5.1850   -15.0990   -44.7270 ns         1 X6S      -0.500900
     37 N22          3.0150   -19.3970   -43.9180 ns         1 X6S      -0.499900
     38 N30          5.5110   -23.8380   -41.5300 nb         1 X6S      -0.666000
     39 O05          6.0900   -13.4660   -45.9040 os         1 X6S      -0.480100
     40 O07          4.4010   -12.9650   -44.3980 o          1 X6S      -0.553000
     41 O21          0.9700   -18.8710   -44.7770 o          1 X6S      -0.587100
     42 S11          2.4770   -16.2000   -45.9590 ss         1 X6S      -0.387000
     43 H1           4.0070   -18.0760   -45.7540 h1         1 X6S       0.063700
     44 H2           2.4810   -14.6960   -44.0360 h1         1 X6S       0.096200
     45 H3           2.2180   -16.3680   -43.5280 h1         1 X6S       0.096200
     46 H4           1.1380   -20.8780   -47.6780 ha         1 X6S       0.116500
     47 H5           4.3430   -23.7640   -47.7740 ha         1 X6S       0.114000
     48 H6           4.6300   -12.3550   -47.7860 hc         1 X6S       0.049478
     49 H7           4.2470   -11.3510   -46.3700 hc         1 X6S       0.049478
     50 H8           5.2470   -10.6960   -47.6670 hc         1 X6S       0.049478
     51 H9           8.3490   -12.6980   -46.9730 hc         1 X6S       0.049478
     52 H10          7.1390   -12.9670   -48.2450 hc         1 X6S       0.049478
     53 H11          7.7040   -11.3220   -47.8900 hc         1 X6S       0.049478
     54 H12          7.5930   -11.6970   -44.6690 hc         1 X6S       0.049478
     55 H13          7.1810   -10.2670   -45.6340 hc         1 X6S       0.049478
     56 H14          5.9770   -10.9650   -44.5510 hc         1 X6S       0.049478
     57 H15          4.5990   -16.9000   -43.9150 h1         1 X6S       0.045700
     58 H16          3.1870   -18.0010   -48.1020 hc         1 X6S       0.071700
     59 H17          1.5990   -18.5290   -47.5820 hc         1 X6S       0.071700
     60 H18          1.9090   -23.2300   -47.8760 ha         1 X6S       0.113500
     61 H19          6.0060   -21.9310   -47.4790 ha         1 X6S       0.113500
     62 H20          5.2460   -19.5730   -47.2900 ha         1 X6S       0.116500
     63 H21          3.4070   -20.3600   -42.1140 h1         1 X6S       0.053200
     64 H22          1.7850   -19.6580   -42.2400 h1         1 X6S       0.053200
     65 H23          1.7250   -22.1470   -42.3150 hc         1 X6S       0.055200
     66 H24          1.0930   -21.4520   -43.7980 hc         1 X6S       0.055200
     67 H25          2.5250   -23.3910   -44.3030 hc         1 X6S       0.056700
     68 H26          3.1890   -21.9320   -44.9990 hc         1 X6S       0.056700
     69 H27          5.5300   -21.4510   -44.6340 ha         1 X6S       0.120000
     70 H28          7.6480   -21.9700   -43.3890 ha         1 X6S       0.120000
     71 H29          7.5620   -23.5050   -41.4140 h4         1 X6S       0.016100
     72 H30          3.4640   -24.0330   -41.8280 h4         1 X6S       0.017100
     73 H31          5.6630   -15.4120   -42.1550 hc         1 X6S       0.071200
     74 H32          4.2300   -14.4320   -42.1650 hc         1 X6S       0.071200
     75 H33          6.2170   -17.5680   -42.3110 ha         1 X6S       0.114000
     76 H34          7.1250   -19.7540   -41.6590 ha         1 X6S       0.112000
     77 H35          5.9570   -21.1560   -39.9650 ha         1 X6S       0.114000
     78 H36          3.8500   -20.3560   -38.9290 ha         1 X6S       0.122000
     79 H37          2.1080   -18.6830   -38.7120 ha         1 X6S       0.117000
     80 H38          1.1370   -16.4850   -39.3300 ha         1 X6S       0.118000
     81 H39          2.2790   -15.0340   -40.9750 ha         1 X6S       0.119000
     82 H40          5.8580   -15.6080   -45.2830 hn         1 X6S       0.327500
     83 H41          4.0130   -19.2850   -44.0480 hn         1 X6S       0.316500
@<TRIPOS>BOND
     1     1     6 1   
     2     1    13 1   
     3     1    42 1   
     4     1    43 1   
     5     2    12 1   
     6     2    42 1   
     7     2    44 1   
     8     2    45 1   
     9     3     4 ar  
    10     3    13 1   
    11     3    16 ar  
    12     4    14 ar  
    13     4    46 1   
    14     5    14 ar  
    15     5    15 ar  
    16     5    47 1   
    17     6    37 1   
    18     6    41 2   
    19     7     8 1   
    20     7    48 1   
    21     7    49 1   
    22     7    50 1   
    23     8     9 1   
    24     8    10 1   
    25     8    39 1   
    26     9    51 1   
    27     9    52 1   
    28     9    53 1   
    29    10    54 1   
    30    10    55 1   
    31    10    56 1   
    32    11    36 1   
    33    11    39 1   
    34    11    40 2   
    35    12    25 1   
    36    12    36 1   
    37    12    57 1   
    38    13    58 1   
    39    13    59 1   
    40    14    60 1   
    41    15    16 ar  
    42    15    61 1   
    43    16    62 1   
    44    17    18 1   
    45    17    37 1   
    46    17    63 1   
    47    17    64 1   
    48    18    19 1   
    49    18    65 1   
    50    18    66 1   
    51    19    20 1   
    52    19    67 1   
    53    19    68 1   
    54    20    21 ar  
    55    20    24 ar  
    56    21    22 ar  
    57    21    69 1   
    58    22    23 ar  
    59    22    70 1   
    60    23    38 ar  
    61    23    71 1   
    62    24    38 ar  
    63    24    72 1   
    64    25    26 1   
    65    25    73 1   
    66    25    74 1   
    67    26    27 ar  
    68    26    35 ar  
    69    27    28 ar  
    70    27    32 ar  
    71    28    29 ar  
    72    28    75 1   
    73    29    30 ar  
    74    29    76 1   
    75    30    31 ar  
    76    30    77 1   
    77    31    32 ar  
    78    31    78 1   
    79    32    33 ar  
    80    33    34 ar  
    81    33    79 1   
    82    34    35 ar  
    83    34    80 1   
    84    35    81 1   
    85    36    82 1   
    86    37    83 1   
@<TRIPOS>SUBSTRUCTURE
     1 X6S         1 TEMP              0 ****  ****    0 ROOT
