@<TRIPOS>MOLECULE
X6T
   90    93     1     0     0
SMALL
abcg2


@<TRIPOS>ATOM
      1 N1         -19.6780    16.0550   -26.8270 n          1 X6T      -0.398800
      2 N3         -18.4900    13.8920   -24.3260 ns         1 X6T      -0.483900
      3 C4         -20.8460    17.6770   -25.5710 cx         1 X6T      -0.127700
      4 C5         -19.6340    18.4760   -25.1570 cx         1 X6T      -0.078000
      5 C6         -18.5670    18.8810   -26.1510 c3         1 X6T      -0.065100
      6 C7         -19.8820    19.5270   -24.0940 c3         1 X6T      -0.065100
      7 C8         -20.8410    16.9600   -26.8990 c5         1 X6T       0.137000
      8 C10        -19.7020    15.4930   -29.2300 c3         1 X6T       0.045700
      9 C17        -18.6290    12.5660   -23.7490 c3         1 X6T       0.112700
     10 C20        -20.7240    11.0050   -21.4900 cy         1 X6T       0.109500
     11 C21        -21.1010     9.5500   -21.0780 cy         1 X6T      -0.093000
     12 C22        -21.7070     8.7500   -22.2220 c3         1 X6T      -0.078100
     13 C24        -19.5760     9.2780   -20.8890 cy         1 X6T       0.109500
     14 C26        -18.5780    11.3410   -25.9800 c6         1 X6T      -0.136700
     15 C28        -20.4540    10.2080   -27.2260 c6         1 X6T      -0.093400
     16 C1         -19.5060    14.5750   -24.8750 c          1 X6T       0.597100
     17 O1         -20.6690    14.1770   -24.9020 o          1 X6T      -0.613100
     18 C2         -19.1300    15.9360   -25.4710 c5         1 X6T       0.061700
     19 N2         -18.6310    15.9020   -30.1290 ns         1 X6T      -0.474900
     20 O2         -19.7250    17.6410   -31.1360 o          1 X6T      -0.554100
     21 C3         -19.7930    17.0490   -24.6890 cx         1 X6T      -0.123700
     22 N4         -19.3060    10.6260   -21.3890 nj         1 X6T      -0.419800
     23 N5         -18.1170     9.7410   -27.8000 ns         1 X6T      -0.512900
     24 O5         -18.9830    13.4800   -21.5800 oh         1 X6T      -0.652000
     25 C9         -19.0850    15.3940   -27.8340 c          1 X6T       0.590100
     26 C11        -20.3980    14.1700   -29.6840 c3         1 X6T      -0.050000
     27 C12        -19.3980    13.0260   -29.8830 c3         1 X6T      -0.090100
     28 C14        -21.4360    13.7770   -28.6250 c3         1 X6T      -0.090100
     29 C16        -17.4710    17.2640   -31.7820 c3         1 X6T       0.209000
     30 C18        -18.1390    12.5850   -22.2940 c3         1 X6T       0.087300
     31 C19        -18.1310    11.1770   -21.6880 c          1 X6T       0.575100
     32 C23        -21.9260     9.4460   -19.8070 c3         1 X6T      -0.078100
     33 C25        -17.9070    11.5320   -24.6160 c3         1 X6T      -0.083400
     34 C27        -19.9370    10.6420   -25.8610 c6         1 X6T      -0.077400
     35 C29        -19.4840     9.2250   -27.8540 c6         1 X6T       0.116000
     36 C30        -17.6180    10.6590   -26.9530 c          1 X6T       0.564000
     37 F1         -17.7280    17.1220   -33.0940 f          1 X6T      -0.101000
     38 F2         -16.4180    16.4800   -31.4860 f          1 X6T      -0.101000
     39 F3         -17.1020    18.5380   -31.5730 f          1 X6T      -0.101000
     40 H1         -17.5560    14.2640   -24.4200 hn         1 X6T       0.322500
     41 H2         -21.8110    17.9560   -25.1700 hc         1 X6T       0.103700
     42 H3         -17.6230    19.0640   -25.6320 hc         1 X6T       0.042533
     43 H4         -18.3830    18.1360   -26.9230 hc         1 X6T       0.042533
     44 H5         -18.8570    19.8100   -26.6480 hc         1 X6T       0.042533
     45 H6         -20.6550    19.2090   -23.3930 hc         1 X6T       0.042533
     46 H7         -18.9680    19.7230   -23.5280 hc         1 X6T       0.042533
     47 H8         -20.2030    20.4660   -24.5530 hc         1 X6T       0.042533
     48 H9         -20.7330    17.6420   -27.7430 h1         1 X6T       0.062200
     49 H10        -21.7640    16.3930   -27.0260 h1         1 X6T       0.062200
     50 H11        -20.4480    16.2790   -29.2670 h1         1 X6T       0.087700
     51 H12        -21.8470    15.2500   -30.9050 hc         1 X6T       0.042922
     52 H13        -20.4050    14.7310   -31.7930 hc         1 X6T       0.042922
     53 H14        -21.6340    13.5480   -31.3430 hc         1 X6T       0.042922
     54 H15        -19.6970    12.3630   -23.7320 h1         1 X6T       0.089700
     55 H16        -21.0080    11.7750   -20.7740 h1         1 X6T       0.061950
     56 H17        -21.0400    11.3010   -22.4900 h1         1 X6T       0.061950
     57 H18        -21.7740     7.6920   -21.9580 hc         1 X6T       0.040700
     58 H19        -22.7130     9.1090   -22.4500 hc         1 X6T       0.040700
     59 H20        -21.1010     8.8390   -23.1260 hc         1 X6T       0.040700
     60 H21        -19.1510     8.4910   -21.5140 h1         1 X6T       0.061950
     61 H22        -19.2570     9.1350   -19.8550 h1         1 X6T       0.061950
     62 H23        -18.7350    12.3290   -26.4290 hc         1 X6T       0.086700
     63 H24        -20.5620    11.0800   -27.8730 hc         1 X6T       0.054200
     64 H25        -21.4340     9.7370   -27.1400 hc         1 X6T       0.054200
     65 H26        -18.0450    16.0370   -25.5200 h1         1 X6T       0.085700
     66 H27        -17.7450    15.4250   -30.0400 hn         1 X6T       0.356500
     67 H28        -19.9750    16.8670   -23.6390 hc         1 X6T       0.108700
     68 H29        -17.4400     9.3270   -28.4250 hn         1 X6T       0.316500
     69 H30        -18.5850    13.6610   -20.7190 ho         1 X6T       0.451000
     70 H31        -18.8780    12.7800   -28.9590 hc         1 X6T       0.042922
     71 H32        -19.9340    12.1370   -30.2230 hc         1 X6T       0.042922
     72 H33        -18.6550    13.2760   -30.6420 hc         1 X6T       0.042922
     73 H34        -20.9700    13.5440   -27.6660 hc         1 X6T       0.042922
     74 H35        -22.1630    14.5760   -28.4670 hc         1 X6T       0.042922
     75 H36        -21.9780    12.8910   -28.9570 hc         1 X6T       0.042922
     76 H37        -17.1010    12.9290   -22.2680 h1         1 X6T       0.066700
     77 H38        -21.4780    10.0270   -18.9980 hc         1 X6T       0.040700
     78 H39        -22.9390     9.8190   -19.9760 hc         1 X6T       0.040700
     79 H40        -21.9990     8.4060   -19.4800 hc         1 X6T       0.040700
     80 H41        -17.8860    10.5700   -24.1010 hc         1 X6T       0.072700
     81 H42        -16.8720    11.8470   -24.7540 hc         1 X6T       0.072700
     82 H43        -20.6500    11.3130   -25.3830 hc         1 X6T       0.052200
     83 H44        -19.8360     9.7660   -25.2120 hc         1 X6T       0.052200
     84 H45        -19.5330     8.2640   -27.3310 h1         1 X6T       0.039200
     85 H46        -19.7320     9.0450   -28.9010 h1         1 X6T       0.039200
     86 O4         -17.0620    10.5780   -21.5120 o          1 X6T      -0.611100
     87 O6         -16.4240    10.9770   -26.9950 o          1 X6T      -0.576000
     88 C13        -21.1130    14.4490   -31.0120 c3         1 X6T      -0.090100
     89 C15        -18.7420    16.9390   -30.9570 c          1 X6T       0.553100
     90 O3         -18.0650    14.7220   -27.6610 o          1 X6T      -0.615100
@<TRIPOS>BOND
     1     1     7 1   
     2     1    18 1   
     3     1    25 1   
     4     2     9 1   
     5     2    16 1   
     6     2    40 1   
     7     3     4 1   
     8     3     7 1   
     9     3    21 1   
    10     3    41 1   
    11     4     5 1   
    12     4     6 1   
    13     4    21 1   
    14     5    42 1   
    15     5    43 1   
    16     5    44 1   
    17     6    45 1   
    18     6    46 1   
    19     6    47 1   
    20     7    48 1   
    21     7    49 1   
    22     8    19 1   
    23     8    25 1   
    24     8    26 1   
    25     8    50 1   
    26     9    30 1   
    27     9    33 1   
    28     9    54 1   
    29    10    11 1   
    30    10    22 1   
    31    10    55 1   
    32    10    56 1   
    33    11    12 1   
    34    11    13 1   
    35    11    32 1   
    36    12    57 1   
    37    12    58 1   
    38    12    59 1   
    39    13    22 1   
    40    13    60 1   
    41    13    61 1   
    42    14    33 1   
    43    14    34 1   
    44    14    36 1   
    45    14    62 1   
    46    15    34 1   
    47    15    35 1   
    48    15    63 1   
    49    15    64 1   
    50    16    17 2   
    51    16    18 1   
    52    18    21 1   
    53    18    65 1   
    54    19    66 1   
    55    19    89 1   
    56    20    89 2   
    57    21    67 1   
    58    22    31 1   
    59    23    35 1   
    60    23    36 1   
    61    23    68 1   
    62    24    30 1   
    63    24    69 1   
    64    25    90 2   
    65    26    27 1   
    66    26    28 1   
    67    26    88 1   
    68    27    70 1   
    69    27    71 1   
    70    27    72 1   
    71    28    73 1   
    72    28    74 1   
    73    28    75 1   
    74    29    37 1   
    75    29    38 1   
    76    29    39 1   
    77    29    89 1   
    78    30    31 1   
    79    30    76 1   
    80    31    86 2   
    81    32    77 1   
    82    32    78 1   
    83    32    79 1   
    84    33    80 1   
    85    33    81 1   
    86    34    82 1   
    87    34    83 1   
    88    35    84 1   
    89    35    85 1   
    90    36    87 2   
    91    51    88 1   
    92    52    88 1   
    93    53    88 1   
@<TRIPOS>SUBSTRUCTURE
     1 X6T         1 TEMP              0 ****  ****    0 ROOT
