@<TRIPOS>MOLECULE
X6T
   90    93     1     0     0
SMALL
No Charge or Current Charge


@<TRIPOS>ATOM
      1 N1         -19.7580    16.2720   -26.8680 n          1 X6T      -0.398800
      2 N3         -18.7080    13.9660   -24.1980 ns         1 X6T      -0.483900
      3 C4         -20.1680    18.1300   -25.4330 cx         1 X6T      -0.127700
      4 C5         -18.7540    18.4020   -24.9410 cx         1 X6T      -0.078000
      5 C6         -17.5540    18.5190   -25.8970 c3         1 X6T      -0.065100
      6 C7         -18.5770    19.3870   -23.7850 c3         1 X6T      -0.065100
      7 C8         -20.3290    17.6430   -26.8790 c5         1 X6T       0.137000
      8 C10        -20.2400    15.8440   -29.3630 c3         1 X6T       0.045700
      9 C17        -18.8130    12.6210   -23.6130 c3         1 X6T       0.112700
     10 C20        -19.9900     9.3790   -22.2350 cy         1 X6T       0.109500
     11 C21        -21.1510     8.9090   -21.2880 cy         1 X6T      -0.093000
     12 C22        -20.8780     7.6350   -20.4660 c3         1 X6T      -0.078100
     13 C24        -20.9160    10.2730   -20.5440 cy         1 X6T       0.109500
     14 C26        -17.7660    11.5480   -25.7970 c6         1 X6T      -0.136700
     15 C28        -18.9810    10.4050   -27.7250 c6         1 X6T      -0.093400
     16 C1         -19.6560    14.5390   -25.0210 c          1 X6T       0.597100
     17 O1         -20.7500    14.0330   -25.2410 o          1 X6T      -0.613100
     18 C2         -19.1130    15.8940   -25.5740 c5         1 X6T       0.061700
     19 N2         -19.3410    15.6100   -30.5220 ns         1 X6T      -0.474900
     20 O2         -19.9010    17.4480   -31.7470 o          1 X6T      -0.554100
     21 C3         -19.4390    17.0760   -24.6430 cx         1 X6T      -0.123700
     22 N4         -20.3440    10.7820   -21.8340 nj         1 X6T      -0.419800
     23 N5         -16.7000     9.6370   -27.0450 ns         1 X6T      -0.512900
     24 O5         -19.6470    13.7010   -21.5440 oh         1 X6T      -0.652000
     25 C9         -19.4150    15.5900   -28.0550 c          1 X6T       0.590100
     26 C11        -21.5600    14.9810   -29.4630 c3         1 X6T      -0.050000
     27 C12        -21.2460    13.4650   -29.3060 c3         1 X6T      -0.090100
     28 C14        -22.5780    15.3880   -28.3640 c3         1 X6T      -0.090100
     29 C16        -18.2230    15.9400   -32.7110 c3         1 X6T       0.209000
     30 C18        -18.7550    12.6700   -22.0530 c3         1 X6T       0.087300
     31 C19        -19.0640    11.2780   -21.4120 c          1 X6T       0.575100
     32 C23        -22.5340     8.7490   -21.9620 c3         1 X6T      -0.078100
     33 C25        -17.7330    11.6910   -24.2340 c3         1 X6T      -0.083400
     34 C27        -19.1160    10.9530   -26.2930 c6         1 X6T      -0.077400
     35 C29        -17.9330     9.2760   -27.7590 c6         1 X6T       0.116000
     36 C30        -16.5140    10.7670   -26.2810 c          1 X6T       0.564000
     37 F1         -18.1760    16.7700   -33.7810 f          1 X6T      -0.101000
     38 F2         -18.5460    14.7080   -33.1730 f          1 X6T      -0.101000
     39 F3         -16.9680    15.8650   -32.2060 f          1 X6T      -0.101000
     40 H1         -17.8600    14.4950   -24.0370 hn         1 X6T       0.322500
     41 H2         -20.9870    18.6680   -24.9590 hc         1 X6T       0.103700
     42 H3         -16.6180    18.2880   -25.3730 hc         1 X6T       0.042533
     43 H4         -17.6070    17.8500   -26.7630 hc         1 X6T       0.042533
     44 H5         -17.4700    19.5400   -26.2890 hc         1 X6T       0.042533
     45 H6         -19.4140    19.3350   -23.0780 hc         1 X6T       0.042533
     46 H7         -17.6580    19.1750   -23.2240 hc         1 X6T       0.042533
     47 H8         -18.5190    20.4190   -24.1520 hc         1 X6T       0.042533
     48 H9         -19.8090    18.2910   -27.5970 h1         1 X6T       0.062200
     49 H10        -21.3860    17.6210   -27.1700 h1         1 X6T       0.062200
     50 H11        -20.5230    16.9030   -29.3680 h1         1 X6T       0.087700
     51 H12        -22.4480    16.2630   -31.0150 hc         1 X6T       0.042922
     52 H13        -21.6370    14.8220   -31.6660 hc         1 X6T       0.042922
     53 H14        -23.2120    14.6700   -30.8840 hc         1 X6T       0.042922
     54 H15        -19.7930    12.2080   -23.8890 h1         1 X6T       0.089700
     55 H16        -20.1720     9.1780   -23.2970 h1         1 X6T       0.061950
     56 H17        -19.0010     8.9980   -21.9500 h1         1 X6T       0.061950
     57 H18        -21.6420     7.4880   -19.6920 hc         1 X6T       0.040700
     58 H19        -20.8680     6.7430   -21.1040 hc         1 X6T       0.040700
     59 H20        -19.9060     7.6900   -19.9620 hc         1 X6T       0.040700
     60 H21        -20.2460    10.1980   -19.6780 h1         1 X6T       0.061950
     61 H22        -21.8390    10.7860   -20.2520 h1         1 X6T       0.061950
     62 H23        -17.6380    12.5580   -26.2080 hc         1 X6T       0.086700
     63 H24        -18.6820    11.2150   -28.4050 hc         1 X6T       0.054200
     64 H25        -19.9490    10.0300   -28.0860 hc         1 X6T       0.054200
     65 H26        -18.0290    15.7770   -25.7090 h1         1 X6T       0.085700
     66 H27        -18.7240    14.8040   -30.4840 hn         1 X6T       0.356500
     67 H28        -19.7480    16.8830   -23.6170 hc         1 X6T       0.108700
     68 H29        -15.8530     9.1410   -27.2940 hn         1 X6T       0.316500
     69 H30        -20.5610    13.4500   -21.8070 ho         1 X6T       0.451000
     70 H31        -20.8370    13.2400   -28.3140 hc         1 X6T       0.042922
     71 H32        -22.1560    12.8640   -29.4290 hc         1 X6T       0.042922
     72 H33        -20.5220    13.1280   -30.0570 hc         1 X6T       0.042922
     73 H34        -22.1820    15.2120   -27.3580 hc         1 X6T       0.042922
     74 H35        -22.8480    16.4480   -28.4520 hc         1 X6T       0.042922
     75 H36        -23.5030    14.8050   -28.4530 hc         1 X6T       0.042922
     76 H37        -17.7240    12.9210   -21.7700 h1         1 X6T       0.066700
     77 H38        -22.7890     9.6280   -22.5670 hc         1 X6T       0.040700
     78 H39        -22.5540     7.8770   -22.6260 hc         1 X6T       0.040700
     79 H40        -23.3280     8.6220   -21.2160 hc         1 X6T       0.040700
     80 H41        -17.8150    10.6930   -23.7870 hc         1 X6T       0.072700
     81 H42        -16.7510    12.0710   -23.9240 hc         1 X6T       0.072700
     82 H43        -19.9070    11.7130   -26.2620 hc         1 X6T       0.052200
     83 H44        -19.4390    10.1390   -25.6290 hc         1 X6T       0.052200
     84 H45        -18.3480     8.3760   -27.2830 h1         1 X6T       0.039200
     85 H46        -17.6860     9.0230   -28.8000 h1         1 X6T       0.039200
     86 O4         -18.2100    10.8100   -20.6590 o          1 X6T      -0.611100
     87 O6         -15.3810    11.1290   -26.0080 o          1 X6T      -0.576000
     88 C13        -22.2520    15.1990   -30.8390 c3         1 X6T      -0.090100
     89 C15        -19.2370    16.4230   -31.6370 c          1 X6T       0.553100
     90 O3         -18.5050    14.7650   -28.0400 o          1 X6T      -0.615100
@<TRIPOS>BOND
     1     1     7 1   
     2     1    18 1   
     3     1    25 1   
     4     2     9 1   
     5     2    16 1   
     6     2    40 1   
     7     3     4 1   
     8     3     7 1   
     9     3    21 1   
    10     3    41 1   
    11     4     5 1   
    12     4     6 1   
    13     4    21 1   
    14     5    42 1   
    15     5    43 1   
    16     5    44 1   
    17     6    45 1   
    18     6    46 1   
    19     6    47 1   
    20     7    48 1   
    21     7    49 1   
    22     8    19 1   
    23     8    25 1   
    24     8    26 1   
    25     8    50 1   
    26     9    30 1   
    27     9    33 1   
    28     9    54 1   
    29    10    11 1   
    30    10    22 1   
    31    10    55 1   
    32    10    56 1   
    33    11    12 1   
    34    11    13 1   
    35    11    32 1   
    36    12    57 1   
    37    12    58 1   
    38    12    59 1   
    39    13    22 1   
    40    13    60 1   
    41    13    61 1   
    42    14    33 1   
    43    14    34 1   
    44    14    36 1   
    45    14    62 1   
    46    15    34 1   
    47    15    35 1   
    48    15    63 1   
    49    15    64 1   
    50    16    17 2   
    51    16    18 1   
    52    18    21 1   
    53    18    65 1   
    54    19    66 1   
    55    19    89 1   
    56    20    89 2   
    57    21    67 1   
    58    22    31 1   
    59    23    35 1   
    60    23    36 1   
    61    23    68 1   
    62    24    30 1   
    63    24    69 1   
    64    25    90 2   
    65    26    27 1   
    66    26    28 1   
    67    26    88 1   
    68    27    70 1   
    69    27    71 1   
    70    27    72 1   
    71    28    73 1   
    72    28    74 1   
    73    28    75 1   
    74    29    37 1   
    75    29    38 1   
    76    29    39 1   
    77    29    89 1   
    78    30    31 1   
    79    30    76 1   
    80    31    86 2   
    81    32    77 1   
    82    32    78 1   
    83    32    79 1   
    84    33    80 1   
    85    33    81 1   
    86    34    82 1   
    87    34    83 1   
    88    35    84 1   
    89    35    85 1   
    90    36    87 2   
    91    51    88 1   
    92    52    88 1   
    93    53    88 1   
@<TRIPOS>SUBSTRUCTURE
     1 X6T         1 TEMP              0 ****  ****    0 ROOT
