@<TRIPOS>MOLECULE
X6U
   47    49     1     0     0
SMALL
abcg2


@<TRIPOS>ATOM
      1 C12        -22.6610    -9.1350     9.9430 c          1 X6U       0.725200
      2 C15        -21.8400   -11.6580     9.9350 cc         1 X6U      -0.158400
      3 C16        -21.2770   -11.8460     8.5970 ca         1 X6U       0.071200
      4 C17        -20.3340   -10.9670     8.0600 ca         1 X6U      -0.045000
      5 C22        -20.5700   -10.0350     3.5340 c3         1 X6U      -0.333100
      6 C01        -24.8600   -12.0550    14.2840 c3         1 X6U      -0.083100
      7 C03        -22.9800   -12.7120    15.8150 c3         1 X6U      -0.083100
      8 C04        -22.6840   -12.7780    13.2930 ca         1 X6U      -0.086300
      9 C05        -22.2890   -14.1040    13.2960 ca         1 X6U      -0.117000
     10 C06        -21.7050   -14.7140    12.1720 ca         1 X6U      -0.154000
     11 C07        -21.5030   -14.0180    11.0000 ca         1 X6U      -0.077000
     12 C08        -21.9020   -12.6760    10.9450 ca         1 X6U      -0.080800
     13 C09        -22.4760   -12.0860    12.0910 ca         1 X6U      -0.063200
     14 C11        -22.3700   -10.5140    10.4940 cd         1 X6U      -0.056300
     15 C18        -19.7940   -11.1730     6.8030 ca         1 X6U      -0.119000
     16 C19        -20.1640   -12.2640     6.0250 ca         1 X6U      -0.079300
     17 C25        -21.0910   -13.1590     6.5690 ca         1 X6U      -0.004000
     18 C26        -21.4870   -14.3210     5.8400 cg         1 X6U       0.346000
     19 C28        -21.6380   -12.9520     7.8340 ca         1 X6U      -0.080000
     20 N10        -22.7420   -10.7890    11.7770 na         1 X6U      -0.193700
     21 N27        -21.7930   -15.2790     5.2770 n1         1 X6U      -0.490000
     22 O13        -22.4570    -8.9570     8.7320 o          1 X6U      -0.701500
     23 O14        -23.0950    -8.3200    10.7800 o          1 X6U      -0.701500
     24 O23        -22.0720   -12.1940     3.7060 o          1 X6U      -0.522500
     25 O24        -20.1610   -12.2000     2.0780 o          1 X6U      -0.522500
     26 S21        -20.7040   -11.8020     3.3750 s6         1 X6U       1.065000
     27 H171       -20.0060   -10.1180     8.6420 ha         1 X6U       0.139000
     28 H202       -19.4700   -13.5050     4.3890 h1         1 X6U       0.097200
     29 H201       -18.6400   -11.9530     4.5310 h1         1 X6U       0.097200
     30 H221       -20.9270    -9.7220     4.5130 h1         1 X6U       0.105033
     31 H222       -19.5360    -9.7330     3.3890 h1         1 X6U       0.105033
     32 H223       -21.1980    -9.5990     2.7580 h1         1 X6U       0.105033
     33 H012       -25.3350   -11.5080    15.1010 hc         1 X6U       0.030367
     34 H011       -25.1450   -11.5700    13.3500 hc         1 X6U       0.030367
     35 H013       -25.2670   -13.0670    14.2740 hc         1 X6U       0.030367
     36 H021       -22.9820   -11.0560    14.4910 hc         1 X6U       0.047700
     37 H032       -23.3870   -12.1050    16.6250 hc         1 X6U       0.030367
     38 H033       -23.3950   -13.7160    15.9250 hc         1 X6U       0.030367
     39 H031       -21.9010   -12.7770    15.9550 hc         1 X6U       0.030367
     40 H051       -22.4210   -14.7000    14.1900 ha         1 X6U       0.093000
     41 H061       -21.4070   -15.7530    12.2370 ha         1 X6U       0.093000
     42 H071       -21.0410   -14.5010    10.1480 ha         1 X6U       0.106000
     43 H181       -19.0600   -10.4750     6.4190 ha         1 X6U       0.100000
     44 H281       -22.3660   -13.6570     8.2150 ha         1 X6U       0.127000
     45 H101       -23.1690   -10.0920    12.3680 hn         1 X6U       0.370000
     46 C20        -19.6010   -12.4540     4.6570 c3         1 X6U      -0.215100
     47 C02        -23.3390   -12.0920    14.4690 c3         1 X6U      -0.009400
@<TRIPOS>BOND
     1     1    14 1   
     2     1    22 1   
     3     1    23 1   
     4     2     3 1   
     5     2    12 1   
     6     2    14 2   
     7     3     4 ar  
     8     3    19 ar  
     9     4    15 ar  
    10     4    27 1   
    11     5    26 1   
    12     5    30 1   
    13     5    31 1   
    14     5    32 1   
    15     6    33 1   
    16     6    34 1   
    17     6    35 1   
    18     6    47 1   
    19     7    37 1   
    20     7    38 1   
    21     7    39 1   
    22     7    47 1   
    23     8     9 ar  
    24     8    13 ar  
    25     8    47 1   
    26     9    10 ar  
    27     9    40 1   
    28    10    11 ar  
    29    10    41 1   
    30    11    12 ar  
    31    11    42 1   
    32    12    13 ar  
    33    13    20 1   
    34    14    20 1   
    35    15    16 ar  
    36    15    43 1   
    37    16    17 ar  
    38    16    46 1   
    39    17    18 1   
    40    17    19 ar  
    41    18    21 3   
    42    19    44 1   
    43    20    45 1   
    44    24    26 2   
    45    25    26 2   
    46    26    46 1   
    47    28    46 1   
    48    29    46 1   
    49    36    47 1   
@<TRIPOS>SUBSTRUCTURE
     1 X6U         1 TEMP              0 ****  ****    0 ROOT
