@<TRIPOS>MOLECULE
X6U
   47    49     1     0     0
SMALL
No Charge or Current Charge


@<TRIPOS>ATOM
      1 C12        -22.7970    -9.2600     9.5850 c          1 X6U       0.725200
      2 C15        -21.9620   -11.7170     9.8990 cc         1 X6U      -0.158400
      3 C16        -21.4180   -11.9210     8.5590 ca         1 X6U       0.071200
      4 C17        -20.2730   -11.2260     8.1360 ca         1 X6U      -0.045000
      5 C22        -20.0750    -9.8750     3.8380 c3         1 X6U      -0.333100
      6 C01        -24.8260   -12.7830    14.8180 c3         1 X6U      -0.083100
      7 C03        -22.5430   -11.9980    15.6550 c3         1 X6U      -0.083100
      8 C04        -22.8310   -12.7460    13.2410 ca         1 X6U      -0.086300
      9 C05        -22.3910   -14.0920    13.3110 ca         1 X6U      -0.117000
     10 C06        -21.7700   -14.7140    12.2040 ca         1 X6U      -0.154000
     11 C07        -21.5780   -14.0020    11.0040 ca         1 X6U      -0.077000
     12 C08        -22.0230   -12.6760    10.9580 ca         1 X6U      -0.080800
     13 C09        -22.6220   -12.0630    12.0240 ca         1 X6U      -0.063200
     14 C11        -22.5630   -10.5360    10.3510 cd         1 X6U      -0.056300
     15 C18        -19.7320   -11.4590     6.8620 ca         1 X6U      -0.119000
     16 C19        -20.3230   -12.3950     5.9890 ca         1 X6U      -0.079300
     17 C25        -21.4670   -13.1160     6.4230 ca         1 X6U      -0.004000
     18 C26        -22.1020   -14.1100     5.5950 cg         1 X6U       0.346000
     19 C28        -22.0000   -12.8730     7.7050 ca         1 X6U      -0.080000
     20 N10        -22.9590   -10.7520    11.6990 na         1 X6U      -0.193700
     21 N27        -22.6170   -14.9260     4.9360 n1         1 X6U      -0.490000
     22 O13        -22.4730    -9.1720     8.4100 o          1 X6U      -0.701500
     23 O14        -23.3370    -8.3390    10.1840 o          1 X6U      -0.701500
     24 O23        -21.8090   -11.7660     3.2180 o          1 X6U      -0.522500
     25 O24        -19.5440   -11.7730     2.0840 o          1 X6U      -0.522500
     26 S21        -20.3570   -11.5580     3.2880 s6         1 X6U       1.065000
     27 H171       -19.8040   -10.5040     8.8000 ha         1 X6U       0.139000
     28 H202       -19.8050   -13.6380     4.2650 h1         1 X6U       0.097200
     29 H201       -18.6160   -12.3820     4.6460 h1         1 X6U       0.097200
     30 H221       -20.6450    -9.7250     4.7600 h1         1 X6U       0.105033
     31 H222       -19.0000    -9.7550     4.0110 h1         1 X6U       0.105033
     32 H223       -20.4250    -9.2060     3.0450 h1         1 X6U       0.105033
     33 H012       -25.3340   -12.2500    15.6300 hc         1 X6U       0.030367
     34 H011       -25.5020   -12.8090    13.9540 hc         1 X6U       0.030367
     35 H013       -24.6480   -13.8140    15.1450 hc         1 X6U       0.030367
     36 H021       -23.7660   -11.0440    14.1950 hc         1 X6U       0.047700
     37 H032       -23.0080   -11.4490    16.4830 hc         1 X6U       0.030367
     38 H033       -22.2750   -12.9980    16.0160 hc         1 X6U       0.030367
     39 H031       -21.6200   -11.4750    15.3770 hc         1 X6U       0.030367
     40 H051       -22.5290   -14.6620    14.2270 ha         1 X6U       0.093000
     41 H061       -21.4390   -15.7470    12.2780 ha         1 X6U       0.093000
     42 H071       -21.0990   -14.4670    10.1460 ha         1 X6U       0.106000
     43 H181       -18.8470   -10.9080     6.5530 ha         1 X6U       0.100000
     44 H281       -22.8720   -13.4260     8.0470 ha         1 X6U       0.127000
     45 H101       -23.4240   -10.0750    12.2930 hn         1 X6U       0.370000
     46 C20        -19.6890   -12.6050     4.6080 c3         1 X6U      -0.215100
     47 C02        -23.5030   -12.0770    14.4470 c3         1 X6U      -0.009400
@<TRIPOS>BOND
     1     1    14 1   
     2     1    22 1   
     3     1    23 1   
     4     2     3 1   
     5     2    12 1   
     6     2    14 2   
     7     3     4 ar  
     8     3    19 ar  
     9     4    15 ar  
    10     4    27 1   
    11     5    26 1   
    12     5    30 1   
    13     5    31 1   
    14     5    32 1   
    15     6    33 1   
    16     6    34 1   
    17     6    35 1   
    18     6    47 1   
    19     7    37 1   
    20     7    38 1   
    21     7    39 1   
    22     7    47 1   
    23     8     9 ar  
    24     8    13 ar  
    25     8    47 1   
    26     9    10 ar  
    27     9    40 1   
    28    10    11 ar  
    29    10    41 1   
    30    11    12 ar  
    31    11    42 1   
    32    12    13 ar  
    33    13    20 1   
    34    14    20 1   
    35    15    16 ar  
    36    15    43 1   
    37    16    17 ar  
    38    16    46 1   
    39    17    18 1   
    40    17    19 ar  
    41    18    21 3   
    42    19    44 1   
    43    20    45 1   
    44    24    26 2   
    45    25    26 2   
    46    26    46 1   
    47    28    46 1   
    48    29    46 1   
    49    36    47 1   
@<TRIPOS>SUBSTRUCTURE
     1 X6U         1 TEMP              0 ****  ****    0 ROOT
