@<TRIPOS>MOLECULE
X6V
   81    84     1     0     0
SMALL
No Charge or Current Charge


@<TRIPOS>ATOM
      1 C12         13.2500   -18.4670    10.8130 c3         1 X6V      -0.000700
      2 C13         12.1630   -18.4960    11.9090 c3         1 X6V      -0.007100
      3 C14         11.5100   -19.8680    12.0290 ca         1 X6V      -0.093300
      4 C15         11.8830   -20.7480    13.0640 ca         1 X6V      -0.101500
      5 C16         11.2910   -22.0190    13.1620 ca         1 X6V      -0.112000
      6 C17         10.3220   -22.4180    12.2260 ca         1 X6V      -0.109000
      7 C18          9.9470   -21.5450    11.1910 ca         1 X6V      -0.112000
      8 C01         19.7120   -18.6220     4.6810 c3         1 X6V      -0.107767
      9 C02         18.8110   -17.4450     5.1170 c3         1 X6V       0.217000
     10 C03         19.6640   -16.1630     5.2950 c3         1 X6V      -0.107767
     11 C04         17.6460   -17.2690     4.1090 c3         1 X6V      -0.107767
     12 C06         17.4430   -17.0760     7.1370 c          1 X6V       0.641100
     13 C09         16.4310   -17.2150     9.4460 c3         1 X6V       0.140700
     14 C19         10.5390   -20.2740    11.0920 ca         1 X6V      -0.101500
     15 C20         14.4100   -19.4420    11.1240 c          1 X6V       0.596100
     16 C23         15.8460   -21.2430    10.1290 c3         1 X6V       0.100000
     17 C24         16.2040   -21.6970     8.7000 c3         1 X6V      -0.094400
     18 C25         17.5310   -22.4850     8.6220 c3         1 X6V      -0.020100
     19 C26         18.7330   -21.6390     9.0270 ca         1 X6V      -0.143300
     20 C27         19.1490   -20.5590     8.2290 ca         1 X6V      -0.083000
     21 C28         20.2380   -19.7880     8.6650 ca         1 X6V      -0.159000
     22 C29         20.8840   -20.1320     9.8650 ca         1 X6V       0.340900
     23 C31         19.4450   -21.9130    10.2150 ca         1 X6V       0.338900
     24 C32         17.1220   -15.9810    10.0820 c3         1 X6V      -0.024200
     25 C33         18.5750   -16.2150    10.4120 cc         1 X6V      -0.139400
     26 C34         19.6840   -15.6760     9.7650 cd         1 X6V      -0.157100
     27 C36         20.4610   -16.9840    11.4010 ca         1 X6V      -0.048200
     28 C37         19.0970   -17.0550    11.4530 ca         1 X6V      -0.101800
     29 C38         18.4320   -17.8390    12.4060 ca         1 X6V      -0.060000
     30 C39         19.2160   -18.5690    13.3240 ca         1 X6V      -0.137000
     31 C40         20.6290   -18.4950    13.2750 ca         1 X6V      -0.080000
     32 C41         21.2650   -17.6920    12.3040 ca         1 X6V      -0.134000
     33 N08         17.1980   -17.7330     8.3080 ns         1 X6V      -0.498900
     34 N22         14.6900   -20.3490    10.1250 ns         1 X6V      -0.506900
     35 N30         20.5070   -21.1830    10.6290 nb         1 X6V      -0.653000
     36 N35         20.8700   -16.1510    10.3760 na         1 X6V      -0.241700
     37 O05         18.2870   -17.8560     6.4000 os         1 X6V      -0.495100
     38 O07         16.9820   -15.9900     6.8290 o          1 X6V      -0.556000
     39 O21         15.0600   -19.4030    12.1610 o          1 X6V      -0.595100
     40 S11         13.8590   -16.7220    10.5540 ss         1 X6V      -0.404000
     41 H1          12.7850   -18.7900     9.8730 h1         1 X6V       0.066700
     42 H2          11.3990   -17.7460    11.6720 hc         1 X6V       0.072700
     43 H3          12.6020   -18.1880    12.8660 hc         1 X6V       0.072700
     44 H4          12.6360   -20.4510    13.7910 ha         1 X6V       0.117500
     45 H5          11.5840   -22.6950    13.9630 ha         1 X6V       0.113000
     46 H6           9.8640   -23.4020    12.3020 ha         1 X6V       0.112000
     47 H7           9.1970   -21.8530    10.4650 ha         1 X6V       0.113000
     48 H8          19.1300   -19.5480     4.5990 hc         1 X6V       0.049922
     49 H9          20.1720   -18.4220     3.7060 hc         1 X6V       0.049922
     50 H10         20.5160   -18.7880     5.4080 hc         1 X6V       0.049922
     51 H11         19.0420   -15.2810     5.4820 hc         1 X6V       0.049922
     52 H12         20.3650   -16.2760     6.1300 hc         1 X6V       0.049922
     53 H13         20.2460   -15.9630     4.3880 hc         1 X6V       0.049922
     54 H14         16.9680   -18.1300     4.1440 hc         1 X6V       0.049922
     55 H15         17.0650   -16.3620     4.3090 hc         1 X6V       0.049922
     56 H16         18.0350   -17.1860     3.0870 hc         1 X6V       0.049922
     57 H17         16.4420   -18.0110    10.1990 h1         1 X6V       0.068700
     58 H18         14.8930   -16.0430     8.4460 h1         1 X6V       0.082700
     59 H19         14.5680   -17.7840     8.4650 h1         1 X6V       0.082700
     60 H20         10.2440   -19.6060    10.2860 ha         1 X6V       0.117500
     61 H21         16.6990   -20.7100    10.5690 h1         1 X6V       0.058200
     62 H22         15.6240   -22.1170    10.7560 h1         1 X6V       0.058200
     63 H23         16.2700   -20.8190     8.0450 hc         1 X6V       0.046700
     64 H24         15.3920   -22.3220     8.3090 hc         1 X6V       0.046700
     65 H25         17.4550   -23.3800     9.2510 hc         1 X6V       0.053200
     66 H26         17.6670   -22.8460     7.5950 hc         1 X6V       0.053200
     67 H27         18.6410   -20.3250     7.2960 ha         1 X6V       0.123000
     68 H28         20.5850   -18.9370     8.0860 ha         1 X6V       0.124000
     69 H29         21.7400   -19.5580    10.2170 h4         1 X6V       0.018100
     70 H30         19.1550   -22.7430    10.8580 h4         1 X6V       0.018100
     71 H31         16.5870   -15.7020    10.9970 hc         1 X6V       0.069200
     72 H32         17.0330   -15.1240     9.4050 hc         1 X6V       0.069200
     73 H33         19.7110   -14.9960     8.9170 h4         1 X6V       0.213000
     74 H34         17.3460   -17.8830    12.4420 ha         1 X6V       0.133000
     75 H35         18.7320   -19.1890    14.0750 ha         1 X6V       0.114000
     76 H36         21.2260   -19.0600    13.9860 ha         1 X6V       0.109000
     77 H37         22.3500   -17.6290    12.2580 ha         1 X6V       0.109000
     78 H38         17.6950   -18.6060     8.4190 hn         1 X6V       0.326500
     79 H39         14.0910   -20.3380     9.3080 hn         1 X6V       0.312500
     80 H40         21.8250   -15.9210    10.1210 hn         1 X6V       0.346000
     81 C10         14.9500   -16.9480     9.0640 c3         1 X6V       0.046600
@<TRIPOS>BOND
     1     1     2 1   
     2     1    15 1   
     3     1    40 1   
     4     1    41 1   
     5     2     3 1   
     6     2    42 1   
     7     2    43 1   
     8     3     4 ar  
     9     3    14 ar  
    10     4     5 ar  
    11     4    44 1   
    12     5     6 ar  
    13     5    45 1   
    14     6     7 ar  
    15     6    46 1   
    16     7    14 ar  
    17     7    47 1   
    18     8     9 1   
    19     8    48 1   
    20     8    49 1   
    21     8    50 1   
    22     9    10 1   
    23     9    11 1   
    24     9    37 1   
    25    10    51 1   
    26    10    52 1   
    27    10    53 1   
    28    11    54 1   
    29    11    55 1   
    30    11    56 1   
    31    12    33 1   
    32    12    37 1   
    33    12    38 2   
    34    13    24 1   
    35    13    33 1   
    36    13    57 1   
    37    13    81 1   
    38    14    60 1   
    39    15    34 1   
    40    15    39 2   
    41    16    17 1   
    42    16    34 1   
    43    16    61 1   
    44    16    62 1   
    45    17    18 1   
    46    17    63 1   
    47    17    64 1   
    48    18    19 1   
    49    18    65 1   
    50    18    66 1   
    51    19    20 ar  
    52    19    23 ar  
    53    20    21 ar  
    54    20    67 1   
    55    21    22 ar  
    56    21    68 1   
    57    22    35 ar  
    58    22    69 1   
    59    23    35 ar  
    60    23    70 1   
    61    24    25 1   
    62    24    71 1   
    63    24    72 1   
    64    25    26 2   
    65    25    28 1   
    66    26    36 1   
    67    26    73 1   
    68    27    28 ar  
    69    27    32 ar  
    70    27    36 1   
    71    28    29 ar  
    72    29    30 ar  
    73    29    74 1   
    74    30    31 ar  
    75    30    75 1   
    76    31    32 ar  
    77    31    76 1   
    78    32    77 1   
    79    33    78 1   
    80    34    79 1   
    81    36    80 1   
    82    40    81 1   
    83    58    81 1   
    84    59    81 1   
@<TRIPOS>SUBSTRUCTURE
     1 X6V         1 TEMP              0 ****  ****    0 ROOT
