@<TRIPOS>MOLECULE
X6V
   81    84     1     0     0
SMALL
abcg2


@<TRIPOS>ATOM
      1 C12         13.2700   -18.4710    10.7570 c3         1 X6V      -0.000700
      2 C13         12.2270   -18.4680    11.8820 c3         1 X6V      -0.007100
      3 C14         11.5950   -19.8290    12.0300 ca         1 X6V      -0.093300
      4 C15         12.0020   -20.7070    13.0340 ca         1 X6V      -0.101500
      5 C16         11.4490   -21.9800    13.1350 ca         1 X6V      -0.112000
      6 C17         10.4790   -22.3940    12.2280 ca         1 X6V      -0.109000
      7 C18         10.0620   -21.5240    11.2240 ca         1 X6V      -0.112000
      8 C01         19.6160   -18.5730     4.5840 c3         1 X6V      -0.107767
      9 C02         18.7610   -17.4050     5.0620 c3         1 X6V       0.217000
     10 C03         19.6280   -16.1770     5.3200 c3         1 X6V      -0.107767
     11 C04         17.6340   -17.1330     4.0730 c3         1 X6V      -0.107767
     12 C06         17.4090   -17.1620     7.1150 c          1 X6V       0.641100
     13 C09         16.4120   -17.2800     9.3930 c3         1 X6V       0.140700
     14 C19         10.6180   -20.2540    11.1270 ca         1 X6V      -0.101500
     15 C20         14.4330   -19.4010    11.0840 c          1 X6V       0.596100
     16 C23         15.9430   -21.1060    10.1570 c3         1 X6V       0.100000
     17 C24         16.2430   -21.6780     8.7790 c3         1 X6V      -0.094400
     18 C25         17.5600   -22.4640     8.7370 c3         1 X6V      -0.020100
     19 C26         18.7630   -21.6010     9.0110 ca         1 X6V      -0.143300
     20 C27         19.2050   -20.6450     8.0970 ca         1 X6V      -0.083000
     21 C28         20.2790   -19.8310     8.4260 ca         1 X6V      -0.159000
     22 C29         20.8990   -20.0090     9.6570 ca         1 X6V       0.340900
     23 C31         19.4590   -21.6950    10.2140 ca         1 X6V       0.338900
     24 C32         17.1480   -16.0670     9.9910 c3         1 X6V      -0.024200
     25 C33         18.5490   -16.3680    10.4070 cc         1 X6V      -0.139400
     26 C34         19.6980   -15.9440     9.7910 cd         1 X6V      -0.157100
     27 C36         20.3860   -17.1620    11.5460 ca         1 X6V      -0.048200
     28 C37         18.9640   -17.1660    11.5310 ca         1 X6V      -0.101800
     29 C38         18.2780   -17.8810    12.5230 ca         1 X6V      -0.060000
     30 C39         19.0060   -18.5460    13.4960 ca         1 X6V      -0.137000
     31 C40         20.4130   -18.5130    13.5020 ca         1 X6V      -0.080000
     32 C41         21.1200   -17.8250    12.5290 ca         1 X6V      -0.134000
     33 N08         17.1080   -17.8460     8.2420 ns         1 X6V      -0.498900
     34 N22         14.7650   -20.2520    10.1020 ns         1 X6V      -0.506900
     35 N30         20.5050   -20.9310    10.5390 nb         1 X6V      -0.653000
     36 N35         20.8020   -16.4180    10.4690 na         1 X6V      -0.241700
     37 O05         18.2170   -17.9070     6.3340 os         1 X6V      -0.495100
     38 O07         16.9920   -16.0450     6.8450 o          1 X6V      -0.556000
     39 O21         15.0310   -19.3540    12.1590 o          1 X6V      -0.595100
     40 S11         13.8650   -16.7540    10.5010 ss         1 X6V      -0.404000
     41 H1          12.7960   -18.7840     9.8270 h1         1 X6V       0.066700
     42 H2          11.4660   -17.7230    11.6430 hc         1 X6V       0.072700
     43 H3          12.7090   -18.1710    12.8130 hc         1 X6V       0.072700
     44 H4          12.7630   -20.3910    13.7370 ha         1 X6V       0.117500
     45 H5          11.7780   -22.6490    13.9210 ha         1 X6V       0.113000
     46 H6          10.0470   -23.3840    12.3050 ha         1 X6V       0.112000
     47 H7           9.3040   -21.8350    10.5160 ha         1 X6V       0.113000
     48 H8          19.0030   -19.4670     4.4620 hc         1 X6V       0.049922
     49 H9          20.0690   -18.3270     3.6230 hc         1 X6V       0.049922
     50 H10         20.4110   -18.7860     5.2990 hc         1 X6V       0.049922
     51 H11         19.0300   -15.3320     5.6530 hc         1 X6V       0.049922
     52 H12         20.3780   -16.4030     6.0800 hc         1 X6V       0.049922
     53 H13         20.1440   -15.9010     4.3990 hc         1 X6V       0.049922
     54 H14         17.0100   -18.0220     3.9600 hc         1 X6V       0.049922
     55 H15         17.0110   -16.3010     4.3940 hc         1 X6V       0.049922
     56 H16         18.0650   -16.8920     3.1000 hc         1 X6V       0.049922
     57 H17         16.4280   -18.0760    10.1330 h1         1 X6V       0.068700
     58 H18         14.8940   -16.0130     8.5080 h1         1 X6V       0.082700
     59 H19         14.5300   -17.7330     8.4170 h1         1 X6V       0.082700
     60 H20         10.2910   -19.5820    10.3410 ha         1 X6V       0.117500
     61 H21         16.7810   -20.5090    10.5240 h1         1 X6V       0.058200
     62 H22         15.7880   -21.9150    10.8770 h1         1 X6V       0.058200
     63 H23         16.2840   -20.8610     8.0520 hc         1 X6V       0.046700
     64 H24         15.4240   -22.3340     8.4730 hc         1 X6V       0.046700
     65 H25         17.5220   -23.2800     9.4630 hc         1 X6V       0.053200
     66 H26         17.6570   -22.9200     7.7490 hc         1 X6V       0.053200
     67 H27         18.7090   -20.5290     7.1410 ha         1 X6V       0.123000
     68 H28         20.6300   -19.0690     7.7430 ha         1 X6V       0.124000
     69 H29         21.7380   -19.3870     9.9450 h4         1 X6V       0.018100
     70 H30         19.1520   -22.4300    10.9520 h4         1 X6V       0.018100
     71 H31         16.5640   -15.7280    10.8510 hc         1 X6V       0.069200
     72 H32         17.1420   -15.2600     9.2580 hc         1 X6V       0.069200
     73 H33         19.8180   -15.3290     8.9130 h4         1 X6V       0.213000
     74 H34         17.1960   -17.9220    12.5260 ha         1 X6V       0.133000
     75 H35         18.4870   -19.1050    14.2660 ha         1 X6V       0.114000
     76 H36         20.9540   -19.0440    14.2770 ha         1 X6V       0.109000
     77 H37         22.2030   -17.8090    12.5240 ha         1 X6V       0.109000
     78 H38         17.6050   -18.7090     8.3870 hn         1 X6V       0.326500
     79 H39         14.2330   -20.2330     9.2460 hn         1 X6V       0.312500
     80 H40         21.7590   -16.2300    10.2220 hn         1 X6V       0.346000
     81 C10         14.9510   -16.9540     9.0520 c3         1 X6V       0.046600
@<TRIPOS>BOND
     1     1     2 1   
     2     1    15 1   
     3     1    40 1   
     4     1    41 1   
     5     2     3 1   
     6     2    42 1   
     7     2    43 1   
     8     3     4 ar  
     9     3    14 ar  
    10     4     5 ar  
    11     4    44 1   
    12     5     6 ar  
    13     5    45 1   
    14     6     7 ar  
    15     6    46 1   
    16     7    14 ar  
    17     7    47 1   
    18     8     9 1   
    19     8    48 1   
    20     8    49 1   
    21     8    50 1   
    22     9    10 1   
    23     9    11 1   
    24     9    37 1   
    25    10    51 1   
    26    10    52 1   
    27    10    53 1   
    28    11    54 1   
    29    11    55 1   
    30    11    56 1   
    31    12    33 1   
    32    12    37 1   
    33    12    38 2   
    34    13    24 1   
    35    13    33 1   
    36    13    57 1   
    37    13    81 1   
    38    14    60 1   
    39    15    34 1   
    40    15    39 2   
    41    16    17 1   
    42    16    34 1   
    43    16    61 1   
    44    16    62 1   
    45    17    18 1   
    46    17    63 1   
    47    17    64 1   
    48    18    19 1   
    49    18    65 1   
    50    18    66 1   
    51    19    20 ar  
    52    19    23 ar  
    53    20    21 ar  
    54    20    67 1   
    55    21    22 ar  
    56    21    68 1   
    57    22    35 ar  
    58    22    69 1   
    59    23    35 ar  
    60    23    70 1   
    61    24    25 1   
    62    24    71 1   
    63    24    72 1   
    64    25    26 2   
    65    25    28 1   
    66    26    36 1   
    67    26    73 1   
    68    27    28 ar  
    69    27    32 ar  
    70    27    36 1   
    71    28    29 ar  
    72    29    30 ar  
    73    29    74 1   
    74    30    31 ar  
    75    30    75 1   
    76    31    32 ar  
    77    31    76 1   
    78    32    77 1   
    79    33    78 1   
    80    34    79 1   
    81    36    80 1   
    82    40    81 1   
    83    58    81 1   
    84    59    81 1   
@<TRIPOS>SUBSTRUCTURE
     1 X6V         1 TEMP              0 ****  ****    0 ROOT
