@<TRIPOS>MOLECULE
X6W
   30    31     1     0     0
SMALL
abcg2


@<TRIPOS>ATOM
      1 CAB          2.3330     2.1000    -0.0880 c3         1 X6W       0.076900
      2 NAO          1.3970     1.0200     0.1120 na         1 X6W       0.157800
      3 CAM          1.6760    -0.2660     0.4170 cc         1 X6W      -0.155300
      4 CAI          3.0590    -0.7790     0.6240 c3         1 X6W       0.221100
      5 NAK          3.8460    -0.6590    -0.5890 n7         1 X6W      -0.866400
      6 CAA          5.2200    -1.0790    -0.3980 c3         1 X6W       0.143100
      7 NAJ          0.0990     1.2320    -0.0570 nc         1 X6W      -0.519800
      8 CAN         -0.4920     0.0650     0.1500 cd         1 X6W       0.304500
      9 CAH          0.4660    -0.9210     0.4530 cd         1 X6W      -0.214000
     10 CAL         -1.9480    -0.0730     0.0560 ca         1 X6W      -0.110500
     11 CAG         -2.7450     0.9900    -0.3760 ca         1 X6W      -0.092500
     12 CAE         -4.1220     0.8550    -0.4600 ca         1 X6W      -0.116000
     13 CAC         -4.7330    -0.3450    -0.1160 ca         1 X6W      -0.108000
     14 CAD         -3.9500    -1.4080     0.3140 ca         1 X6W      -0.116000
     15 CAF         -2.5720    -1.2730     0.4000 ca         1 X6W      -0.092500
     16 HAB1         2.6190     2.1840    -1.1350 h1         1 X6W       0.057700
     17 HAB2         1.8700     3.0290     0.2340 h1         1 X6W       0.057700
     18 HAB3         3.2280     1.9290     0.5030 h1         1 X6W       0.057700
     19 HAI1         3.5560    -0.2000     1.4090 h1         1 X6W       0.045200
     20 HAI2         2.9900    -1.8080     1.0040 h1         1 X6W       0.045200
     21 HAH          0.3140    -1.9670     0.6660 ha         1 X6W       0.141000
     22 HAK          3.4200    -1.2220    -1.3140 hn         1 X6W       0.418000
     23 HAA1         5.7140    -0.4100     0.3080 h1         1 X6W       0.032033
     24 HAA2         5.3310    -2.1030    -0.0150 h1         1 X6W       0.032033
     25 HAA3         5.7570    -1.0160    -1.3440 h1         1 X6W       0.032033
     26 HAG         -2.2820     1.9290    -0.6520 ha         1 X6W       0.119000
     27 HAF         -1.9830    -2.1140     0.7430 ha         1 X6W       0.119000
     28 HAE         -4.7200     1.6920    -0.7980 ha         1 X6W       0.110500
     29 HAC         -5.8080    -0.4500    -0.1820 ha         1 X6W       0.110000
     30 HAD         -4.4130    -2.3480     0.5880 ha         1 X6W       0.110500
@<TRIPOS>BOND
     1     1     2 1   
     2     1    16 1   
     3     1    17 1   
     4     1    18 1   
     5     2     3 1   
     6     2     7 1   
     7     3     4 1   
     8     3     9 2   
     9     4     5 1   
    10     4    19 1   
    11     4    20 1   
    12     5     6 1   
    13     5    22 1   
    14     6    23 1   
    15     6    24 1   
    16     6    25 1   
    17     7     8 2   
    18     8     9 1   
    19     8    10 1   
    20     9    21 1   
    21    10    11 ar  
    22    10    15 ar  
    23    11    12 ar  
    24    11    26 1   
    25    12    13 ar  
    26    12    28 1   
    27    13    14 ar  
    28    13    29 1   
    29    14    15 ar  
    30    14    30 1   
    31    15    27 1   
@<TRIPOS>SUBSTRUCTURE
     1 X6W         1 TEMP              0 ****  ****    0 ROOT
