@<TRIPOS>MOLECULE
X6W
   30    31     1     0     0
SMALL
No Charge or Current Charge


@<TRIPOS>ATOM
      1 CAB          2.3420     2.3430     0.0760 c3         1 X6W       0.076900
      2 NAO          1.4050     1.2120     0.1740 na         1 X6W       0.157800
      3 CAM          1.7360    -0.1160     0.4280 cc         1 X6W      -0.155300
      4 CAI          3.1200    -0.6560     0.6640 c3         1 X6W       0.221100
      5 NAK          3.8010    -0.8400    -0.6270 n7         1 X6W      -0.866400
      6 CAA          5.1630    -1.4000    -0.5430 c3         1 X6W       0.143100
      7 NAJ          0.0500     1.4220     0.0020 nc         1 X6W      -0.519800
      8 CAN         -0.4700     0.2140     0.1490 cd         1 X6W       0.304500
      9 CAH          0.5290    -0.7530     0.4090 cd         1 X6W      -0.214000
     10 CAL         -1.9290    -0.0270     0.0380 ca         1 X6W      -0.110500
     11 CAG         -2.8110     1.0150    -0.3390 ca         1 X6W      -0.092500
     12 CAE         -4.1950     0.7870    -0.4340 ca         1 X6W      -0.116000
     13 CAC         -4.7210    -0.4820    -0.1480 ca         1 X6W      -0.108000
     14 CAD         -3.8610    -1.5230     0.2340 ca         1 X6W      -0.116000
     15 CAF         -2.4770    -1.2980     0.3280 ca         1 X6W      -0.092500
     16 HAB1         3.1110     2.1150    -0.6710 h1         1 X6W       0.057700
     17 HAB2         1.8080     3.2520    -0.2220 h1         1 X6W       0.057700
     18 HAB3         2.8190     2.5050     1.0500 h1         1 X6W       0.057700
     19 HAI1         3.6780     0.0410     1.3050 h1         1 X6W       0.045200
     20 HAI2         3.0420    -1.6120     1.2020 h1         1 X6W       0.045200
     21 HAH          0.3760    -1.8140     0.5640 ha         1 X6W       0.141000
     22 HAK          3.2240    -1.4780    -1.1900 hn         1 X6W       0.418000
     23 HAA1         5.8190    -0.7470     0.0490 h1         1 X6W       0.032033
     24 HAA2         5.1510    -2.3930    -0.0730 h1         1 X6W       0.032033
     25 HAA3         5.6010    -1.5030    -1.5450 h1         1 X6W       0.032033
     26 HAG         -2.4280     2.0080    -0.5650 ha         1 X6W       0.119000
     27 HAF         -1.8370    -2.1220     0.6320 ha         1 X6W       0.119000
     28 HAE         -4.8590     1.5970    -0.7280 ha         1 X6W       0.110500
     29 HAC         -5.7930    -0.6570    -0.2210 ha         1 X6W       0.110000
     30 HAD         -4.2670    -2.5060     0.4590 ha         1 X6W       0.110500
@<TRIPOS>BOND
     1     1     2 1   
     2     1    16 1   
     3     1    17 1   
     4     1    18 1   
     5     2     3 1   
     6     2     7 1   
     7     3     4 1   
     8     3     9 2   
     9     4     5 1   
    10     4    19 1   
    11     4    20 1   
    12     5     6 1   
    13     5    22 1   
    14     6    23 1   
    15     6    24 1   
    16     6    25 1   
    17     7     8 2   
    18     8     9 1   
    19     8    10 1   
    20     9    21 1   
    21    10    11 ar  
    22    10    15 ar  
    23    11    12 ar  
    24    11    26 1   
    25    12    13 ar  
    26    12    28 1   
    27    13    14 ar  
    28    13    29 1   
    29    14    15 ar  
    30    14    30 1   
    31    15    27 1   
@<TRIPOS>SUBSTRUCTURE
     1 X6W         1 TEMP              0 ****  ****    0 ROOT
