@<TRIPOS>MOLECULE
X6X
   25    25     1     0     0
SMALL
bcc


@<TRIPOS>ATOM
      1 O4          -9.8920     0.8250    13.8290 oh         1 X6X      -0.579800
      2 C4          -8.7080     1.0240    13.0920 c6         1 X6X       0.130100
      3 C3          -8.1570    -0.3300    12.6620 c6         1 X6X       0.160100
      4 O3          -9.1500    -1.0220    11.9380 oh         1 X6X      -0.586800
      5 C2          -7.6770    -1.1240    13.8770 c6         1 X6X       0.111500
      6 N2          -7.1120    -2.3980    13.4580 n8         1 X6X      -0.878800
      7 C1          -6.6480    -0.3000    14.6520 c6         1 X6X       0.342900
      8 O1          -5.4800    -0.1950    13.9020 oh         1 X6X      -0.597800
      9 O5          -7.1810     0.9530    14.9920 os         1 X6X      -0.437600
     10 C5          -7.6270     1.7450    13.9030 c6         1 X6X       0.116100
     11 C6          -8.0970     3.0520    14.5230 c3         1 X6X       0.134400
     12 O6          -8.5690     3.8840    13.4890 oh         1 X6X      -0.606800
     13 HO4        -10.4100     1.6350    13.8020 ho         1 X6X       0.406000
     14 H4          -8.9040     1.6130    12.1870 h1         1 X6X       0.061700
     15 H3          -7.2900    -0.1300    12.0180 h1         1 X6X       0.058700
     16 HO3         -8.7140    -1.6670    11.3730 ho         1 X6X       0.408000
     17 H2          -8.5260    -1.2520    14.5640 h1         1 X6X       0.060700
     18 HN21        -6.6730    -2.8540    14.2490 hn         1 X6X       0.341300
     19 HN22        -7.8660    -3.0180    13.1870 hn         1 X6X       0.341300
     20 H1          -6.4480    -0.7820    15.6180 h2         1 X6X       0.058700
     21 HO1         -4.7850     0.1700    14.4600 ho         1 X6X       0.411000
     22 H5          -6.7950     1.9650    13.2200 h1         1 X6X       0.061700
     23 H61         -7.2540     3.5080    15.0580 h1         1 X6X       0.036200
     24 H62         -8.8730     2.8440    15.2690 h1         1 X6X       0.036200
     25 HO6         -8.9100     4.6920    13.8840 ho         1 X6X       0.412000
@<TRIPOS>BOND
     1     1     2 1   
     2     1    13 1   
     3     2     3 1   
     4     2    10 1   
     5     2    14 1   
     6     3     4 1   
     7     3     5 1   
     8     3    15 1   
     9     4    16 1   
    10     5     6 1   
    11     5     7 1   
    12     5    17 1   
    13     6    18 1   
    14     6    19 1   
    15     7     8 1   
    16     7     9 1   
    17     7    20 1   
    18     8    21 1   
    19     9    10 1   
    20    10    11 1   
    21    10    22 1   
    22    11    12 1   
    23    11    23 1   
    24    11    24 1   
    25    12    25 1   
@<TRIPOS>SUBSTRUCTURE
     1 X6X         1 TEMP              0 ****  ****    0 ROOT
