@<TRIPOS>MOLECULE
X6X
   25    25     1     0     0
SMALL
No Charge or Current Charge


@<TRIPOS>ATOM
      1 O4         -10.0030     0.8880    13.7640 oh         1 X6X      -0.702000
      2 C4          -8.7540     1.0710    13.0460 c6         1 X6X       0.153300
      3 C3          -8.1760    -0.2940    12.5490 c6         1 X6X       0.183300
      4 O3          -9.0620    -1.0150    11.6770 oh         1 X6X      -0.649000
      5 C2          -7.8030    -1.2100    13.7530 c6         1 X6X       0.111500
      6 N2          -7.3080    -2.5440    13.2530 n8         1 X6X      -0.989200
      7 C1          -6.8090    -0.4520    14.7140 c6         1 X6X       0.389300
      8 O1          -5.5320    -0.2580    14.1090 oh         1 X6X      -0.660000
      9 O5          -7.3230     0.8490    15.0690 os         1 X6X      -0.484000
     10 C5          -7.6510     1.7230    13.9490 c6         1 X6X       0.139300
     11 C6          -8.0660     3.1060    14.5420 c3         1 X6X       0.157600
     12 O6          -8.4270     4.0600    13.5260 oh         1 X6X      -0.729000
     13 HO4        -10.4230     1.7760    13.8260 ho         1 X6X       0.505000
     14 H4          -8.9120     1.7130    12.1670 h1         1 X6X       0.061700
     15 H3          -7.2480    -0.0740    12.0000 h1         1 X6X       0.058700
     16 HO3         -8.8000    -1.9530    11.8410 ho         1 X6X       0.447000
     17 H2          -8.7240    -1.4100    14.3230 h1         1 X6X       0.060700
     18 HN21        -6.3290    -2.4220    12.9600 hn         1 X6X       0.396500
     19 HN22        -7.2260    -3.1900    14.0490 hn         1 X6X       0.396500
     20 H1          -6.6870    -1.0460    15.6330 h2         1 X6X       0.058700
     21 HO1         -5.0250     0.2720    14.7600 ho         1 X6X       0.450000
     22 H5          -6.7460     1.8870    13.3460 h1         1 X6X       0.061700
     23 H61         -7.2200     3.4870    15.1300 h1         1 X6X       0.036200
     24 H62         -8.9030     2.9560    15.2370 h1         1 X6X       0.036200
     25 HO6         -8.5870     4.9210    13.9810 ho         1 X6X       0.511000
@<TRIPOS>BOND
     1     1     2 1   
     2     1    13 1   
     3     2     3 1   
     4     2    10 1   
     5     2    14 1   
     6     3     4 1   
     7     3     5 1   
     8     3    15 1   
     9     4    16 1   
    10     5     6 1   
    11     5     7 1   
    12     5    17 1   
    13     6    18 1   
    14     6    19 1   
    15     7     8 1   
    16     7     9 1   
    17     7    20 1   
    18     8    21 1   
    19     9    10 1   
    20    10    11 1   
    21    10    22 1   
    22    11    12 1   
    23    11    23 1   
    24    11    24 1   
    25    12    25 1   
@<TRIPOS>SUBSTRUCTURE
     1 X6X         1 TEMP              0 ****  ****    0 ROOT
