@<TRIPOS>MOLECULE
X6Y
   26    26     1     0     0
SMALL
abcg2


@<TRIPOS>ATOM
      1 C5           6.7390   -10.1140     3.2020 c6         1 X6Y       0.143300
      2 C6           7.4380    -9.8640     4.5230 c3         1 X6Y      -0.089100
      3 C2           4.3910   -10.7490     1.6850 c6         1 X6Y       0.231300
      4 C4           6.3320   -11.5750     3.0010 c6         1 X6Y       0.102300
      5 C3           5.5750   -11.7080     1.6770 c6         1 X6Y       0.171300
      6 C1           4.8650    -9.3180     1.9640 c6         1 X6Y       0.351300
      7 O5           5.6010    -9.2650     3.1540 os         1 X6Y      -0.485000
      8 O4           5.5020   -12.0580     4.0300 oh         1 X6Y      -0.684000
      9 O1           5.5960    -8.8770     0.8640 oh         1 X6Y      -0.658000
     10 O3           5.0980   -13.0080     1.4540 oh         1 X6Y      -0.602000
     11 O6           1.7690   -12.2500     0.8750 o          1 X6Y      -0.706867
     12 O7           1.6120    -9.8480     1.3180 o          1 X6Y      -0.706867
     13 O8           1.8270   -10.6600    -1.0030 o          1 X6Y      -0.706867
     14 O2           3.7340   -10.7930     0.4310 os         1 X6Y      -0.574700
     15 H5           7.4370    -9.8610     2.3930 h1         1 X6Y       0.039700
     16 H61          7.7880    -8.8340     4.5870 hc         1 X6Y       0.035367
     17 H63          6.7800   -10.0460     5.3740 hc         1 X6Y       0.035367
     18 H62          8.3070   -10.5150     4.6170 hc         1 X6Y       0.035367
     19 H2           3.7140   -11.0360     2.4980 h1         1 X6Y       0.084700
     20 H4           7.2580   -12.1670     2.9320 h1         1 X6Y       0.009700
     21 H3           6.2710   -11.4070     0.8810 h1         1 X6Y       0.046700
     22 H1           3.9940    -8.6770     2.1420 h2         1 X6Y       0.098700
     23 HO4          6.0290   -12.1770     4.8250 ho         1 X6Y       0.483000
     24 HO1          5.7180    -7.9240     0.9330 ho         1 X6Y       0.432000
     25 HO3          5.8550   -13.5910     1.3450 ho         1 X6Y       0.416000
     26 S1           2.0890   -10.8980     0.4130 s6         1 X6Y       1.496300
@<TRIPOS>BOND
     1     1     2 1   
     2     1     4 1   
     3     1     7 1   
     4     1    15 1   
     5     2    16 1   
     6     2    17 1   
     7     2    18 1   
     8     3     5 1   
     9     3     6 1   
    10     3    14 1   
    11     3    19 1   
    12     4     5 1   
    13     4     8 1   
    14     4    20 1   
    15     5    10 1   
    16     5    21 1   
    17     6     7 1   
    18     6     9 1   
    19     6    22 1   
    20     8    23 1   
    21     9    24 1   
    22    10    25 1   
    23    11    26 1   
    24    12    26 1   
    25    13    26 1   
    26    14    26 1   
@<TRIPOS>SUBSTRUCTURE
     1 X6Y         1 TEMP              0 ****  ****    0 ROOT
