@<TRIPOS>MOLECULE
X6Y
   26    26     1     0     0
SMALL
No Charge or Current Charge


@<TRIPOS>ATOM
      1 C5           6.7680   -10.1090     3.1610 c6         1 X6Y       0.143300
      2 C6           7.5100    -9.8680     4.5010 c3         1 X6Y      -0.089100
      3 C2           4.3720   -10.8420     1.5940 c6         1 X6Y       0.231300
      4 C4           6.4580   -11.6160     2.8820 c6         1 X6Y       0.102300
      5 C3           5.6760   -11.7140     1.5390 c6         1 X6Y       0.171300
      6 C1           4.7570    -9.3650     1.9970 c6         1 X6Y       0.351300
      7 O5           5.5410    -9.3430     3.2100 os         1 X6Y      -0.485000
      8 O4           5.6840   -12.2290     3.9380 oh         1 X6Y      -0.684000
      9 O1           5.5160    -8.6810     0.9940 oh         1 X6Y      -0.658000
     10 O3           5.3890   -13.0980     1.2610 oh         1 X6Y      -0.602000
     11 O6           1.6640   -12.1390     0.9880 o          1 X6Y      -0.706867
     12 O7           1.7130    -9.6800     1.1560 o          1 X6Y      -0.706867
     13 O8           1.6550   -10.7640    -1.0650 o          1 X6Y      -0.706867
     14 O2           3.6710   -10.9000     0.3210 os         1 X6Y      -0.574700
     15 H5           7.4090    -9.7210     2.3560 h1         1 X6Y       0.039700
     16 H61          7.7830    -8.8120     4.6080 hc         1 X6Y       0.035367
     17 H63          6.8930   -10.1400     5.3660 hc         1 X6Y       0.035367
     18 H62          8.4360   -10.4530     4.5480 hc         1 X6Y       0.035367
     19 H2           3.7300   -11.2540     2.3870 h1         1 X6Y       0.084700
     20 H4           7.4140   -12.1480     2.7720 h1         1 X6Y       0.009700
     21 H3           6.3170   -11.3110     0.7410 h1         1 X6Y       0.046700
     22 H1           3.8230    -8.8100     2.1800 h2         1 X6Y       0.098700
     23 HO4          6.1490   -12.0400     4.7840 ho         1 X6Y       0.483000
     24 HO1          5.7660    -7.8270     1.4040 ho         1 X6Y       0.432000
     25 HO3          5.1930   -13.4880     2.1410 ho         1 X6Y       0.416000
     26 S1           2.0330   -10.8670     0.3510 s6         1 X6Y       1.496300
@<TRIPOS>BOND
     1     1     2 1   
     2     1     4 1   
     3     1     7 1   
     4     1    15 1   
     5     2    16 1   
     6     2    17 1   
     7     2    18 1   
     8     3     5 1   
     9     3     6 1   
    10     3    14 1   
    11     3    19 1   
    12     4     5 1   
    13     4     8 1   
    14     4    20 1   
    15     5    10 1   
    16     5    21 1   
    17     6     7 1   
    18     6     9 1   
    19     6    22 1   
    20     8    23 1   
    21     9    24 1   
    22    10    25 1   
    23    11    26 1   
    24    12    26 1   
    25    13    26 1   
    26    14    26 1   
@<TRIPOS>SUBSTRUCTURE
     1 X6Y         1 TEMP              0 ****  ****    0 ROOT
