@<TRIPOS>MOLECULE
X70
   84    87     1     0     0
SMALL
abcg2


@<TRIPOS>ATOM
      1 N1         -19.7370    15.8540   -26.6430 n          1 X70      -0.398800
      2 N3         -18.3840    13.8480   -24.0820 ns         1 X70      -0.486900
      3 C4         -21.0000    17.4280   -25.4190 cx         1 X70      -0.127700
      4 C5         -19.8390    18.3000   -25.0050 cx         1 X70      -0.078000
      5 C6         -18.7870    18.7500   -25.9970 c3         1 X70      -0.065100
      6 C7         -20.1530    19.3490   -23.9590 c3         1 X70      -0.065100
      7 C8         -20.9430    16.6990   -26.7390 c5         1 X70       0.138000
      8 C10        -19.6910    15.2740   -29.0440 c3         1 X70       0.046700
      9 C17        -18.3860    12.5100   -23.5170 c3         1 X70       0.111700
     10 C20        -20.1600    10.5400   -21.3450 cy         1 X70       0.065500
     11 C21        -20.2410     9.0740   -20.8960 cy         1 X70       0.138000
     12 C22        -18.7130     9.0280   -20.7400 cy         1 X70       0.065500
     13 C24        -18.2330    11.3140   -25.7560 c6         1 X70      -0.138700
     14 C26        -20.0010    10.0130   -26.9920 c6         1 X70      -0.092400
     15 C28        -17.2200    10.7580   -26.7540 c          1 X70       0.565000
     16 C1         -19.4510    14.4180   -24.6680 c          1 X70       0.598100
     17 O1         -20.5690    13.9110   -24.7100 o          1 X70      -0.607100
     18 C2         -19.1830    15.7940   -25.2880 c5         1 X70       0.060700
     19 N2         -18.6140    15.7050   -29.9260 ns         1 X70      -0.475900
     20 O2         -19.7310    17.3960   -30.9880 o          1 X70      -0.554100
     21 C3         -19.9210    16.8720   -24.5210 cx         1 X70      -0.124700
     22 N4         -18.6980    10.4170   -21.2100 nj         1 X70      -0.426800
     23 O4         -18.8830    13.2780   -21.3210 oh         1 X70      -0.650000
     24 N5         -17.6380     9.8250   -27.6270 ns         1 X70      -0.511900
     25 O6         -16.0650    11.1980   -26.7990 o          1 X70      -0.577000
     26 C9         -19.0980    15.2120   -27.6360 c          1 X70       0.590100
     27 C11        -20.3330    13.9210   -29.4940 c3         1 X70      -0.051000
     28 C12        -21.0550    14.1630   -30.8250 c3         1 X70      -0.090433
     29 C14        -19.2840    12.8190   -29.6840 c3         1 X70      -0.090433
     30 C16        -17.4560    17.0610   -31.5840 c3         1 X70       0.208000
     31 C18        -17.8960    12.5720   -22.0620 c3         1 X70       0.089300
     32 C19        -17.6330    11.1750   -21.4940 c          1 X70       0.585100
     33 C23        -17.5690    11.5630   -24.3980 c3         1 X70      -0.084400
     34 C25        -19.5020    10.4650   -25.6280 c6         1 X70      -0.076400
     35 C27        -18.9430     9.1680   -27.6770 c6         1 X70       0.115000
     36 F1         -16.4040    16.2760   -31.2880 f          1 X70      -0.100333
     37 F2         -17.6980    16.9400   -32.9000 f          1 X70      -0.100333
     38 F3         -17.0920    18.3330   -31.3500 f          1 X70      -0.100333
     39 F4         -20.9510     8.8550   -19.7550 f          1 X70      -0.098500
     40 F5         -20.7420     8.2190   -21.8300 f          1 X70      -0.098500
     41 H1         -17.4890    14.3060   -24.1770 hn         1 X70       0.321500
     42 H2         -21.9830    17.6570   -25.0300 hc         1 X70       0.103700
     43 H3         -17.8540    18.9780   -25.4760 hc         1 X70       0.042700
     44 H4         -18.5680    18.0120   -26.7650 hc         1 X70       0.042700
     45 H5         -19.1190    19.6630   -26.4980 hc         1 X70       0.042700
     46 H6         -20.9130    18.9990   -23.2570 hc         1 X70       0.042700
     47 H7         -19.2550    19.6030   -23.3880 hc         1 X70       0.042700
     48 H8         -20.5210    20.2630   -24.4320 hc         1 X70       0.042700
     49 H9         -20.8590    17.3750   -27.5900 h1         1 X70       0.062700
     50 H10        -21.8350    16.0850   -26.8700 h1         1 X70       0.062700
     51 H11        -20.4610    16.0350   -29.1050 h1         1 X70       0.087700
     52 H12        -20.8870    13.2880   -27.4730 hc         1 X70       0.043144
     53 H13        -22.1230    14.2530   -28.2920 hc         1 X70       0.043144
     54 H14        -21.8530    12.5740   -28.7640 hc         1 X70       0.043144
     55 H15        -19.4280    12.1960   -23.4950 h1         1 X70       0.088700
     56 H16        -20.6120    11.2480   -20.6540 h1         1 X70       0.087700
     57 H17        -20.5160    10.7080   -22.3600 h1         1 X70       0.087700
     58 H18        -18.2120     8.3280   -21.4080 h1         1 X70       0.087700
     59 H19        -18.3700     8.8990   -19.7140 h1         1 X70       0.087700
     60 H20        -18.5060    12.2830   -26.1910 hc         1 X70       0.089700
     61 H21        -20.2320    10.8840   -27.6070 hc         1 X70       0.054700
     62 H22        -20.9170     9.4270   -26.8970 hc         1 X70       0.054700
     63 H23        -18.1080    15.9710   -25.3400 h1         1 X70       0.084700
     64 H24        -17.7190    15.2500   -29.8170 hn         1 X70       0.356500
     65 H25        -20.1010    16.6900   -23.4710 hc         1 X70       0.108700
     66 H26        -18.5100    13.5340   -20.4680 ho         1 X70       0.453000
     67 H27        -16.9320     9.5020   -28.2740 hn         1 X70       0.316500
     68 H28        -21.8250    14.9300   -30.7220 hc         1 X70       0.043144
     69 H29        -20.3590    14.4750   -31.6050 hc         1 X70       0.043144
     70 H30        -21.5340    13.2390   -31.1550 hc         1 X70       0.043144
     71 H31        -18.7440    12.6120   -28.7620 hc         1 X70       0.043144
     72 H32        -19.7820    11.9010   -30.0030 hc         1 X70       0.043144
     73 H33        -18.5610    13.0880   -30.4550 hc         1 X70       0.043144
     74 H34        -16.9350    13.0930   -22.0260 h1         1 X70       0.069700
     75 H35        -17.4450    10.6040   -23.8930 hc         1 X70       0.071700
     76 H36        -16.5730    11.9830   -24.5420 hc         1 X70       0.071700
     77 H37        -20.2720    11.0420   -25.1160 hc         1 X70       0.051700
     78 H38        -19.2890     9.5890   -25.0050 hc         1 X70       0.051700
     79 H39        -18.8760     8.1870   -27.1940 h1         1 X70       0.040200
     80 H40        -19.1930     9.0010   -28.7260 h1         1 X70       0.040200
     81 O5         -16.4850    10.7620   -21.3250 o          1 X70      -0.590100
     82 C13        -21.3560    13.4890   -28.4370 c3         1 X70      -0.090433
     83 C15        -18.7360    16.7210   -30.7780 c          1 X70       0.554100
     84 O3         -18.0500    14.5920   -27.4390 o          1 X70      -0.615100
@<TRIPOS>BOND
     1     1     7 1   
     2     1    18 1   
     3     1    26 1   
     4     2     9 1   
     5     2    16 1   
     6     2    41 1   
     7     3     4 1   
     8     3     7 1   
     9     3    21 1   
    10     3    42 1   
    11     4     5 1   
    12     4     6 1   
    13     4    21 1   
    14     5    43 1   
    15     5    44 1   
    16     5    45 1   
    17     6    46 1   
    18     6    47 1   
    19     6    48 1   
    20     7    49 1   
    21     7    50 1   
    22     8    19 1   
    23     8    26 1   
    24     8    27 1   
    25     8    51 1   
    26     9    31 1   
    27     9    33 1   
    28     9    55 1   
    29    10    11 1   
    30    10    22 1   
    31    10    56 1   
    32    10    57 1   
    33    11    12 1   
    34    11    39 1   
    35    11    40 1   
    36    12    22 1   
    37    12    58 1   
    38    12    59 1   
    39    13    15 1   
    40    13    33 1   
    41    13    34 1   
    42    13    60 1   
    43    14    34 1   
    44    14    35 1   
    45    14    61 1   
    46    14    62 1   
    47    15    24 1   
    48    15    25 2   
    49    16    17 2   
    50    16    18 1   
    51    18    21 1   
    52    18    63 1   
    53    19    64 1   
    54    19    83 1   
    55    20    83 2   
    56    21    65 1   
    57    22    32 1   
    58    23    31 1   
    59    23    66 1   
    60    24    35 1   
    61    24    67 1   
    62    26    84 2   
    63    27    28 1   
    64    27    29 1   
    65    27    82 1   
    66    28    68 1   
    67    28    69 1   
    68    28    70 1   
    69    29    71 1   
    70    29    72 1   
    71    29    73 1   
    72    30    36 1   
    73    30    37 1   
    74    30    38 1   
    75    30    83 1   
    76    31    32 1   
    77    31    74 1   
    78    32    81 2   
    79    33    75 1   
    80    33    76 1   
    81    34    77 1   
    82    34    78 1   
    83    35    79 1   
    84    35    80 1   
    85    52    82 1   
    86    53    82 1   
    87    54    82 1   
@<TRIPOS>SUBSTRUCTURE
     1 X70         1 TEMP              0 ****  ****    0 ROOT
