@<TRIPOS>MOLECULE
X70
   84    87     1     0     0
SMALL
No Charge or Current Charge


@<TRIPOS>ATOM
      1 N1         -19.8380    15.9730   -26.6850 n          1 X70      -0.398800
      2 N3         -18.5500    13.7920   -24.0160 ns         1 X70      -0.486900
      3 C4         -20.4800    17.7620   -25.2490 cx         1 X70      -0.127700
      4 C5         -19.1120    18.1970   -24.7400 cx         1 X70      -0.078000
      5 C6         -17.9250    18.4580   -25.6840 c3         1 X70      -0.065100
      6 C7         -19.0650    19.1910   -23.5800 c3         1 X70      -0.065100
      7 C8         -20.5670    17.2660   -26.6990 c5         1 X70       0.138000
      8 C10        -20.2390    15.5020   -29.1870 c3         1 X70       0.046700
      9 C17        -18.5000    12.4390   -23.4410 c3         1 X70       0.111700
     10 C20        -19.2980     9.0460   -22.0620 cy         1 X70       0.065500
     11 C21        -20.3830     8.4600   -21.0990 cy         1 X70       0.138000
     12 C22        -20.3540     9.8570   -20.3950 cy         1 X70       0.065500
     13 C24        -17.2970    11.5260   -25.6170 c6         1 X70      -0.138700
     14 C26        -18.3400    10.2800   -27.5820 c6         1 X70      -0.092400
     15 C28        -15.9550    10.9020   -26.0890 c          1 X70       0.565000
     16 C1         -19.5530    14.2550   -24.8430 c          1 X70       0.598100
     17 O1         -20.5780    13.6260   -25.0730 o          1 X70      -0.607100
     18 C2         -19.1670    15.6670   -25.3850 c5         1 X70       0.060700
     19 N2         -19.3070    15.3810   -30.3360 ns         1 X70      -0.475900
     20 O2         -20.0640    17.1470   -31.5610 o          1 X70      -0.554100
     21 C3         -19.6390    16.7980   -24.4540 cx         1 X70      -0.124700
     22 N4         -19.8190    10.4100   -21.6900 nj         1 X70      -0.426800
     23 O4         -19.4860    13.3950   -21.3780 oh         1 X70      -0.650000
     24 N5         -15.9970     9.7710   -26.8710 ns         1 X70      -0.511900
     25 O6         -14.8770    11.3890   -25.7890 o          1 X70      -0.577000
     26 C9         -19.4050    15.3400   -27.8710 c          1 X70       0.590100
     27 C11        -21.4480    14.4910   -29.3060 c3         1 X70      -0.051000
     28 C12        -22.1460    14.6340   -30.6890 c3         1 X70      -0.090433
     29 C14        -20.9600    13.0210   -29.1520 c3         1 X70      -0.090433
     30 C16        -18.2110    15.8500   -32.5110 c3         1 X70       0.208000
     31 C18        -18.4690    12.4830   -21.8790 c3         1 X70       0.089300
     32 C19        -18.6140    11.0600   -21.2510 c          1 X70       0.585100
     33 C23        -17.3080    11.6500   -24.0530 c3         1 X70      -0.084400
     34 C25        -18.5610    10.7860   -26.1460 c6         1 X70      -0.076400
     35 C27        -17.1670     9.2800   -27.6130 c6         1 X70       0.115000
     36 F1         -18.3820    14.5920   -32.9820 f          1 X70      -0.100333
     37 F2         -18.2500    16.6860   -33.5770 f          1 X70      -0.100333
     38 F3         -16.9620    15.9210   -31.9920 f          1 X70      -0.100333
     39 F4         -21.5650     8.1360   -21.6910 f          1 X70      -0.098500
     40 F5         -19.9920     7.4050   -20.3390 f          1 X70      -0.098500
     41 H1         -17.7690    14.4140   -23.8470 hn         1 X70       0.321500
     42 H2         -21.3610    18.1980   -24.7820 hc         1 X70       0.103700
     43 H3         -16.9740    18.3380   -25.1500 hc         1 X70       0.042700
     44 H4         -17.8890    17.7920   -26.5510 hc         1 X70       0.042700
     45 H5         -17.9580    19.4840   -26.0710 hc         1 X70       0.042700
     46 H6         -19.8980    19.0380   -22.8820 hc         1 X70       0.042700
     47 H7         -18.1340    19.0860   -23.0100 hc         1 X70       0.042700
     48 H8         -19.1250    20.2240   -23.9430 hc         1 X70       0.042700
     49 H9         -20.1190    17.9740   -27.4090 h1         1 X70       0.062700
     50 H10        -21.6110    17.1220   -27.0010 h1         1 X70       0.062700
     51 H11        -20.6450    16.5200   -29.1920 h1         1 X70       0.087700
     52 H12        -22.1150    14.6350   -27.2070 hc         1 X70       0.043144
     53 H13        -22.9100    15.7900   -28.3020 hc         1 X70       0.043144
     54 H14        -23.3670    14.0820   -28.3180 hc         1 X70       0.043144
     55 H15        -19.4190    11.9130   -23.7320 h1         1 X70       0.088700
     56 H16        -19.4620     8.7940   -23.1150 h1         1 X70       0.087700
     57 H17        -18.2710     8.7910   -21.7740 h1         1 X70       0.087700
     58 H18        -19.7030     9.8920   -19.5130 h1         1 X70       0.087700
     59 H19        -21.3470    10.2410   -20.1390 h1         1 X70       0.087700
     60 H20        -17.2800    12.5500   -26.0140 hc         1 X70       0.089700
     61 H21        -18.1250    11.1300   -28.2460 hc         1 X70       0.054700
     62 H22        -19.2510     9.8010   -27.9660 hc         1 X70       0.054700
     63 H23        -18.0760    15.6790   -25.5090 h1         1 X70       0.084700
     64 H24        -18.6000    14.6530   -30.2950 hn         1 X70       0.356500
     65 H25        -19.9350    16.5650   -23.4330 hc         1 X70       0.108700
     66 H26        -20.3580    13.0490   -21.6710 ho         1 X70       0.453000
     67 H27        -15.0930     9.3800   -27.1100 hn         1 X70       0.316500
     68 H28        -22.4640    15.6690   -30.8620 hc         1 X70       0.043144
     69 H29        -21.4830    14.3370   -31.5100 hc         1 X70       0.043144
     70 H30        -23.0370    13.9960   -30.7470 hc         1 X70       0.043144
     71 H31        -20.5380    12.8410   -28.1560 hc         1 X70       0.043144
     72 H32        -21.7910    12.3180   -29.2880 hc         1 X70       0.043144
     73 H33        -20.1930    12.7760   -29.8960 hc         1 X70       0.043144
     74 H34        -17.4800    12.8550   -21.5800 h1         1 X70       0.069700
     75 H35        -17.2800    10.6440   -23.6190 hc         1 X70       0.071700
     76 H36        -16.3830    12.1390   -23.7210 hc         1 X70       0.071700
     77 H37        -19.4350    11.4490   -26.1190 hc         1 X70       0.051700
     78 H38        -18.7980     9.9300   -25.4980 hc         1 X70       0.051700
     79 H39        -17.4830     8.3310   -27.1570 h1         1 X70       0.040200
     80 H40        -16.8750     9.0740   -28.6530 h1         1 X70       0.040200
     81 O5         -17.7210    10.6910   -20.4890 o          1 X70      -0.590100
     82 C13        -22.5190    14.7700   -28.2160 c3         1 X70      -0.090433
     83 C15        -19.2860    16.2060   -31.4470 c          1 X70       0.554100
     84 O3         -18.4050    14.6270   -27.8480 o          1 X70      -0.615100
@<TRIPOS>BOND
     1     1     7 1   
     2     1    18 1   
     3     1    26 1   
     4     2     9 1   
     5     2    16 1   
     6     2    41 1   
     7     3     4 1   
     8     3     7 1   
     9     3    21 1   
    10     3    42 1   
    11     4     5 1   
    12     4     6 1   
    13     4    21 1   
    14     5    43 1   
    15     5    44 1   
    16     5    45 1   
    17     6    46 1   
    18     6    47 1   
    19     6    48 1   
    20     7    49 1   
    21     7    50 1   
    22     8    19 1   
    23     8    26 1   
    24     8    27 1   
    25     8    51 1   
    26     9    31 1   
    27     9    33 1   
    28     9    55 1   
    29    10    11 1   
    30    10    22 1   
    31    10    56 1   
    32    10    57 1   
    33    11    12 1   
    34    11    39 1   
    35    11    40 1   
    36    12    22 1   
    37    12    58 1   
    38    12    59 1   
    39    13    15 1   
    40    13    33 1   
    41    13    34 1   
    42    13    60 1   
    43    14    34 1   
    44    14    35 1   
    45    14    61 1   
    46    14    62 1   
    47    15    24 1   
    48    15    25 2   
    49    16    17 2   
    50    16    18 1   
    51    18    21 1   
    52    18    63 1   
    53    19    64 1   
    54    19    83 1   
    55    20    83 2   
    56    21    65 1   
    57    22    32 1   
    58    23    31 1   
    59    23    66 1   
    60    24    35 1   
    61    24    67 1   
    62    26    84 2   
    63    27    28 1   
    64    27    29 1   
    65    27    82 1   
    66    28    68 1   
    67    28    69 1   
    68    28    70 1   
    69    29    71 1   
    70    29    72 1   
    71    29    73 1   
    72    30    36 1   
    73    30    37 1   
    74    30    38 1   
    75    30    83 1   
    76    31    32 1   
    77    31    74 1   
    78    32    81 2   
    79    33    75 1   
    80    33    76 1   
    81    34    77 1   
    82    34    78 1   
    83    35    79 1   
    84    35    80 1   
    85    52    82 1   
    86    53    82 1   
    87    54    82 1   
@<TRIPOS>SUBSTRUCTURE
     1 X70         1 TEMP              0 ****  ****    0 ROOT
