@<TRIPOS>MOLECULE
X71
   80    82     1     0     0
SMALL
abcg2


@<TRIPOS>ATOM
      1 C14        -24.5560   -19.7120    -5.6810 c3         1 X71      -0.026100
      2 C15        -25.8500   -19.6950    -6.4470 ca         1 X71      -0.085300
      3 C17        -27.1120   -20.2590    -8.4330 ca         1 X71      -0.107000
      4 C21        -22.1820   -18.9900    -5.5680 c          1 X71       0.613100
      5 C20        -26.9810   -19.0650    -5.9360 ca         1 X71      -0.108000
      6 C19        -28.1660   -19.0290    -6.6620 ca         1 X71      -0.107000
      7 C18        -28.2350   -19.6260    -7.9130 ca         1 X71      -0.108000
      8 C16        -25.9320   -20.2920    -7.7050 ca         1 X71      -0.108000
      9 C13        -23.5020   -18.7630    -6.2900 c3         1 X71      -0.139700
     10 C12        -23.9400   -17.3110    -6.1810 c3         1 X71       0.074600
     11 C10        -22.7150   -16.6830    -8.6120 c3         1 X71       0.029600
     12 C01        -26.7560   -13.5270   -10.6680 c3         1 X71      -0.108767
     13 C02        -25.5730   -12.5840   -10.8490 c3         1 X71       0.225000
     14 C03        -25.2320   -12.3710   -12.3190 c3         1 X71      -0.108767
     15 C04        -25.8770   -11.2430   -10.1930 c3         1 X71      -0.108767
     16 C06        -23.8250   -14.2220   -10.3680 c          1 X71       0.649100
     17 C09        -22.0300   -15.6420    -9.4980 c3         1 X71       0.143700
     18 C24        -21.4810   -20.5520    -7.3920 c3         1 X71       0.108000
     19 C25        -20.4970   -21.7050    -7.5000 c3         1 X71      -0.091400
     20 C26        -20.7760   -22.6070    -8.7050 c3         1 X71      -0.023100
     21 C27        -20.6440   -21.9160   -10.0320 ca         1 X71      -0.133300
     22 C28        -19.4380   -21.9340   -10.7270 ca         1 X71       0.338900
     23 C30        -20.2580   -20.6840   -12.4400 ca         1 X71       0.333900
     24 C31        -21.5050   -20.5960   -11.8400 ca         1 X71      -0.157000
     25 C32        -21.6980   -21.2300   -10.6240 ca         1 X71      -0.074000
     26 C33        -20.5810   -15.3600    -9.0810 c3         1 X71      -0.042100
     27 C34        -19.7450   -16.6090    -9.0450 ca         1 X71      -0.085300
     28 C35        -19.3200   -17.2030   -10.2320 ca         1 X71      -0.103500
     29 C36        -18.5760   -18.3730   -10.2170 ca         1 X71      -0.114500
     30 C37        -18.2390   -18.9680    -9.0080 ca         1 X71      -0.112000
     31 C38        -18.6540   -18.3850    -7.8200 ca         1 X71      -0.114500
     32 C39        -19.4030   -17.2160    -7.8390 ca         1 X71      -0.103500
     33 N08        -22.7610   -14.3960    -9.5520 ns         1 X71      -0.496900
     34 N29        -19.2410   -21.3460   -11.9000 nb         1 X71      -0.665000
     35 O05        -24.4130   -13.0550   -10.1120 os         1 X71      -0.475100
     36 O07        -24.1680   -15.0180   -11.2190 o          1 X71      -0.557000
     37 O22        -21.9520   -18.4490    -4.4940 o          1 X71      -0.600100
     38 S11        -22.7510   -16.1380    -6.8800 ss         1 X71      -0.440000
     39 H1         -24.1530   -20.7290    -5.6680 hc         1 X71       0.059700
     40 H2         -24.7300   -19.4310    -4.6400 hc         1 X71       0.059700
     41 H3         -27.1580   -20.7330    -9.4050 ha         1 X71       0.114000
     42 H4         -26.9360   -18.5970    -4.9600 ha         1 X71       0.109000
     43 H5         -29.0350   -18.5340    -6.2470 ha         1 X71       0.114000
     44 H6         -29.1570   -19.6020    -8.4790 ha         1 X71       0.114000
     45 H7         -25.0640   -20.7930    -8.1200 ha         1 X71       0.109000
     46 H8         -23.4070   -19.0090    -7.3500 hc         1 X71       0.059700
     47 H9         -24.0580   -17.0210    -5.1360 h1         1 X71       0.084200
     48 H10        -24.9060   -17.1710    -6.6700 h1         1 X71       0.084200
     49 H11        -23.7380   -16.8470    -8.9590 h1         1 X71       0.070700
     50 H12        -22.1740   -17.6270    -8.6970 h1         1 X71       0.070700
     51 H13        -26.9560   -13.7040    -9.6090 hc         1 X71       0.049256
     52 H14        -27.6470   -13.0710   -11.0990 hc         1 X71       0.049256
     53 H15        -26.6030   -14.4870   -11.1570 hc         1 X71       0.049256
     54 H16        -24.3650   -11.7170   -12.4270 hc         1 X71       0.049256
     55 H17        -25.0320   -13.3050   -12.8390 hc         1 X71       0.049256
     56 H18        -26.0740   -11.8860   -12.8150 hc         1 X71       0.049256
     57 H19        -25.0340   -10.5560   -10.2850 hc         1 X71       0.049256
     58 H20        -26.7380   -10.7820   -10.6760 hc         1 X71       0.049256
     59 H21        -26.1120   -11.3600    -9.1330 hc         1 X71       0.049256
     60 H22        -22.0120   -16.0580   -10.5070 h1         1 X71       0.081700
     61 H23        -21.3390   -19.8590    -8.2290 h1         1 X71       0.043700
     62 H24        -22.4940   -20.9580    -7.4640 h1         1 X71       0.043700
     63 H25        -20.5640   -22.3150    -6.5960 hc         1 X71       0.052200
     64 H26        -19.4750   -21.3180    -7.5510 hc         1 X71       0.052200
     65 H27        -21.7800   -23.0280    -8.6110 hc         1 X71       0.052200
     66 H28        -20.0830   -23.4500    -8.6670 hc         1 X71       0.052200
     67 H29        -18.5890   -22.4680   -10.3070 h4         1 X71       0.016100
     68 H30        -20.0750   -20.2070   -13.3960 h4         1 X71       0.021100
     69 H31        -22.3060   -20.0510   -12.3200 ha         1 X71       0.128000
     70 H32        -22.6710   -21.2010   -10.1450 ha         1 X71       0.114000
     71 H33        -20.5610   -14.8690    -8.1030 hc         1 X71       0.061700
     72 H34        -20.1610   -14.6460    -9.7930 hc         1 X71       0.061700
     73 H35        -19.5710   -16.7430   -11.1820 ha         1 X71       0.121000
     74 H36        -18.2570   -18.8190   -11.1480 ha         1 X71       0.114500
     75 H37        -17.6520   -19.8780    -8.9950 ha         1 X71       0.111000
     76 H38        -18.3920   -18.8360    -6.8710 ha         1 X71       0.114500
     77 H39        -19.7370   -16.7780    -6.9070 ha         1 X71       0.121000
     78 H40        -22.6410   -13.7470    -8.7890 hn         1 X71       0.329500
     79 H41        -20.4560   -20.0000    -5.6310 hn         1 X71       0.315500
     80 N23        -21.3240   -19.8590    -6.1280 ns         1 X71      -0.509900
@<TRIPOS>BOND
     1     1     2 1   
     2     1     9 1   
     3     1    39 1   
     4     1    40 1   
     5     2     5 ar  
     6     2     8 ar  
     7     3     7 ar  
     8     3     8 ar  
     9     3    41 1   
    10     4     9 1   
    11     4    37 2   
    12     4    80 1   
    13     5     6 ar  
    14     5    42 1   
    15     6     7 ar  
    16     6    43 1   
    17     7    44 1   
    18     8    45 1   
    19     9    10 1   
    20     9    46 1   
    21    10    38 1   
    22    10    47 1   
    23    10    48 1   
    24    11    17 1   
    25    11    38 1   
    26    11    49 1   
    27    11    50 1   
    28    12    13 1   
    29    12    51 1   
    30    12    52 1   
    31    12    53 1   
    32    13    14 1   
    33    13    15 1   
    34    13    35 1   
    35    14    54 1   
    36    14    55 1   
    37    14    56 1   
    38    15    57 1   
    39    15    58 1   
    40    15    59 1   
    41    16    33 1   
    42    16    35 1   
    43    16    36 2   
    44    17    26 1   
    45    17    33 1   
    46    17    60 1   
    47    18    19 1   
    48    18    61 1   
    49    18    62 1   
    50    18    80 1   
    51    19    20 1   
    52    19    63 1   
    53    19    64 1   
    54    20    21 1   
    55    20    65 1   
    56    20    66 1   
    57    21    22 ar  
    58    21    25 ar  
    59    22    34 ar  
    60    22    67 1   
    61    23    24 ar  
    62    23    34 ar  
    63    23    68 1   
    64    24    25 ar  
    65    24    69 1   
    66    25    70 1   
    67    26    27 1   
    68    26    71 1   
    69    26    72 1   
    70    27    28 ar  
    71    27    32 ar  
    72    28    29 ar  
    73    28    73 1   
    74    29    30 ar  
    75    29    74 1   
    76    30    31 ar  
    77    30    75 1   
    78    31    32 ar  
    79    31    76 1   
    80    32    77 1   
    81    33    78 1   
    82    79    80 1   
@<TRIPOS>SUBSTRUCTURE
     1 X71         1 TEMP              0 ****  ****    0 ROOT
