@<TRIPOS>MOLECULE
X71
   80    82     1     0     0
SMALL
No Charge or Current Charge


@<TRIPOS>ATOM
      1 C14        -24.8050   -19.7030    -5.7540 c3         1 X71      -0.026100
      2 C15        -26.0780   -19.5860    -6.5860 ca         1 X71      -0.085300
      3 C17        -27.2930   -20.0140    -8.6590 ca         1 X71      -0.107000
      4 C21        -22.3610   -19.0700    -5.4930 c          1 X71       0.613100
      5 C20        -27.2090   -18.9230    -6.0710 ca         1 X71      -0.108000
      6 C19        -28.3760   -18.8050    -6.8470 ca         1 X71      -0.107000
      7 C18        -28.4180   -19.3500    -8.1410 ca         1 X71      -0.108000
      8 C16        -26.1270   -20.1320    -7.8840 ca         1 X71      -0.108000
      9 C13        -23.6710   -18.7780    -6.2630 c3         1 X71      -0.139700
     10 C12        -24.0580   -17.2810    -6.1720 c3         1 X71       0.074600
     11 C10        -22.7010   -16.7450    -8.6370 c3         1 X71       0.029600
     12 C01        -26.8590   -13.4250   -10.1310 c3         1 X71      -0.108767
     13 C02        -25.6770   -12.5560   -10.6340 c3         1 X71       0.225000
     14 C03        -25.5680   -12.5130   -12.1800 c3         1 X71      -0.108767
     15 C04        -25.8030   -11.1210   -10.0750 c3         1 X71      -0.108767
     16 C06        -23.9660   -14.3080   -10.3240 c          1 X71       0.649100
     17 C09        -22.0320   -15.7140    -9.5810 c3         1 X71       0.143700
     18 C24        -21.3950   -20.4500    -7.3810 c3         1 X71       0.108000
     19 C25        -20.3660   -21.5960    -7.3810 c3         1 X71      -0.091400
     20 C26        -20.5720   -22.6100    -8.5290 c3         1 X71      -0.023100
     21 C27        -20.3650   -22.0130    -9.9170 ca         1 X71      -0.133300
     22 C28        -19.1230   -22.1370   -10.5750 ca         1 X71       0.338900
     23 C30        -19.8980   -21.0100   -12.4450 ca         1 X71       0.333900
     24 C31        -21.1670   -20.8360   -11.8670 ca         1 X71      -0.157000
     25 C32        -21.4130   -21.3510   -10.5840 ca         1 X71      -0.074000
     26 C33        -20.5520   -15.4220    -9.2330 c3         1 X71      -0.042100
     27 C34        -19.6800   -16.6730    -9.2260 ca         1 X71      -0.085300
     28 C35        -19.2620   -17.2530   -10.4390 ca         1 X71      -0.103500
     29 C36        -18.4520   -18.4010   -10.4330 ca         1 X71      -0.114500
     30 C37        -18.0600   -18.9800    -9.2140 ca         1 X71      -0.112000
     31 C38        -18.4750   -18.4070    -8.0010 ca         1 X71      -0.114500
     32 C39        -19.2840   -17.2580    -8.0070 ca         1 X71      -0.103500
     33 N08        -22.8040   -14.4720    -9.6310 ns         1 X71      -0.496900
     34 N29        -18.8870   -21.6540   -11.8180 nb         1 X71      -0.665000
     35 O05        -24.4380   -13.0500   -10.0720 os         1 X71      -0.475100
     36 O07        -24.4710   -15.1590   -11.0380 o          1 X71      -0.557000
     37 O22        -22.2280   -18.7860    -4.3120 o          1 X71      -0.600100
     38 S11        -22.7480   -16.1700    -6.8690 ss         1 X71      -0.440000
     39 H1         -24.4540   -20.7420    -5.7760 hc         1 X71       0.059700
     40 H2         -25.0120   -19.4790    -4.6990 hc         1 X71       0.059700
     41 H3         -27.3240   -20.4360    -9.6610 ha         1 X71       0.114000
     42 H4         -27.1860   -18.4940    -5.0720 ha         1 X71       0.109000
     43 H5         -29.2460   -18.2910    -6.4450 ha         1 X71       0.114000
     44 H6         -29.3200   -19.2580    -8.7420 ha         1 X71       0.114000
     45 H7         -25.2600   -20.6460    -8.2930 ha         1 X71       0.109000
     46 H8         -23.5330   -19.0130    -7.3210 hc         1 X71       0.059700
     47 H9         -24.2310   -17.0080    -5.1220 h1         1 X71       0.084200
     48 H10        -24.9910   -17.1030    -6.7220 h1         1 X71       0.084200
     49 H11        -23.7280   -16.9270    -8.9780 h1         1 X71       0.070700
     50 H12        -22.1580   -17.6960    -8.6920 h1         1 X71       0.070700
     51 H13        -26.8030   -13.5680    -9.0450 hc         1 X71       0.049256
     52 H14        -27.8140   -12.9380   -10.3590 hc         1 X71       0.049256
     53 H15        -26.8760   -14.4100   -10.6090 hc         1 X71       0.049256
     54 H16        -24.6310   -12.0370   -12.4910 hc         1 X71       0.049256
     55 H17        -25.6110   -13.5140   -12.6220 hc         1 X71       0.049256
     56 H18        -26.3980   -11.9360   -12.6050 hc         1 X71       0.049256
     57 H19        -24.9510   -10.5050   -10.3860 hc         1 X71       0.049256
     58 H20        -26.7200   -10.6410   -10.4380 hc         1 X71       0.049256
     59 H21        -25.8370   -11.1310    -8.9790 hc         1 X71       0.049256
     60 H22        -22.0440   -16.1480   -10.5900 h1         1 X71       0.081700
     61 H23        -21.2400   -19.8080    -8.2580 h1         1 X71       0.043700
     62 H24        -22.3990   -20.8900    -7.4390 h1         1 X71       0.043700
     63 H25        -20.4400   -22.1360    -6.4290 hc         1 X71       0.052200
     64 H26        -19.3520   -21.1830    -7.4340 hc         1 X71       0.052200
     65 H27        -21.5790   -23.0400    -8.4520 hc         1 X71       0.052200
     66 H28        -19.8800   -23.4490    -8.3800 hc         1 X71       0.052200
     67 H29        -18.2900   -22.6480   -10.0940 h4         1 X71       0.016100
     68 H30        -19.6850   -20.6240   -13.4410 h4         1 X71       0.021100
     69 H31        -21.9460   -20.3140   -12.4150 ha         1 X71       0.128000
     70 H32        -22.3920   -21.2390   -10.1230 ha         1 X71       0.114000
     71 H33        -20.4970   -14.9140    -8.2620 hc         1 X71       0.061700
     72 H34        -20.1550   -14.7080    -9.9640 hc         1 X71       0.061700
     73 H35        -19.5590   -16.8100   -11.3870 ha         1 X71       0.121000
     74 H36        -18.1250   -18.8400   -11.3720 ha         1 X71       0.114500
     75 H37        -17.4330   -19.8690    -9.2110 ha         1 X71       0.111000
     76 H38        -18.1710   -18.8530    -7.0570 ha         1 X71       0.114500
     77 H39        -19.6040   -16.8240    -7.0620 ha         1 X71       0.121000
     78 H40        -22.5200   -13.6900    -9.0560 hn         1 X71       0.329500
     79 H41        -20.4460   -19.6990    -5.6330 hn         1 X71       0.315500
     80 N23        -21.2990   -19.6260    -6.1730 ns         1 X71      -0.509900
@<TRIPOS>BOND
     1     1     2 1   
     2     1     9 1   
     3     1    39 1   
     4     1    40 1   
     5     2     5 ar  
     6     2     8 ar  
     7     3     7 ar  
     8     3     8 ar  
     9     3    41 1   
    10     4     9 1   
    11     4    37 2   
    12     4    80 1   
    13     5     6 ar  
    14     5    42 1   
    15     6     7 ar  
    16     6    43 1   
    17     7    44 1   
    18     8    45 1   
    19     9    10 1   
    20     9    46 1   
    21    10    38 1   
    22    10    47 1   
    23    10    48 1   
    24    11    17 1   
    25    11    38 1   
    26    11    49 1   
    27    11    50 1   
    28    12    13 1   
    29    12    51 1   
    30    12    52 1   
    31    12    53 1   
    32    13    14 1   
    33    13    15 1   
    34    13    35 1   
    35    14    54 1   
    36    14    55 1   
    37    14    56 1   
    38    15    57 1   
    39    15    58 1   
    40    15    59 1   
    41    16    33 1   
    42    16    35 1   
    43    16    36 2   
    44    17    26 1   
    45    17    33 1   
    46    17    60 1   
    47    18    19 1   
    48    18    61 1   
    49    18    62 1   
    50    18    80 1   
    51    19    20 1   
    52    19    63 1   
    53    19    64 1   
    54    20    21 1   
    55    20    65 1   
    56    20    66 1   
    57    21    22 ar  
    58    21    25 ar  
    59    22    34 ar  
    60    22    67 1   
    61    23    24 ar  
    62    23    34 ar  
    63    23    68 1   
    64    24    25 ar  
    65    24    69 1   
    66    25    70 1   
    67    26    27 1   
    68    26    71 1   
    69    26    72 1   
    70    27    28 ar  
    71    27    32 ar  
    72    28    29 ar  
    73    28    73 1   
    74    29    30 ar  
    75    29    74 1   
    76    30    31 ar  
    77    30    75 1   
    78    31    32 ar  
    79    31    76 1   
    80    32    77 1   
    81    33    78 1   
    82    79    80 1   
@<TRIPOS>SUBSTRUCTURE
     1 X71         1 TEMP              0 ****  ****    0 ROOT
