@<TRIPOS>MOLECULE
X72
   31    32     1     0     0
SMALL
No Charge or Current Charge


@<TRIPOS>ATOM
      1 N01          1.2260     0.0980    -0.3670 nu         1 X72      -0.944200
      2 N02         -0.6140    -3.6630     0.4480 nt         1 X72      -0.588000
      3 N03          5.5380     0.6580    -1.2470 nb         1 X72      -0.168500
      4 N04          5.4580    -0.1400     1.0290 nb         1 X72      -0.168500
      5 N05         -4.4320    -0.2020    -0.0300 no         1 X72       0.712200
      6 C06         -2.1890    -1.2910     0.0480 ca         1 X72       0.041000
      7 C07         -0.7750    -1.2520    -0.0270 ca         1 X72      -0.268600
      8 C08         -0.1540    -0.0080    -0.2810 ca         1 X72       0.441000
      9 C09         -0.9240     1.1450    -0.4680 ca         1 X72      -0.247000
     10 C10         -2.3170     1.0990    -0.3910 ca         1 X72       0.254000
     11 C11         -2.9560    -0.1220    -0.1230 ca         1 X72      -0.271200
     12 C13          2.0410     1.2140     0.1050 c3         1 X72       0.284100
     13 C14          3.4950     0.8110     0.0150 ca         1 X72      -0.229300
     14 C15          4.2400     1.0140    -1.1620 ca         1 X72       0.129900
     15 C16          6.0820     0.0970    -0.1450 ca         1 X72       0.131900
     16 C17          4.1610     0.2190     1.1050 ca         1 X72       0.129900
     17 O18          1.2510    -2.5610     0.0620 o          1 X72      -0.643100
     18 O19         -4.9830    -1.1710    -0.5660 o          1 X72      -0.402000
     19 O20         -5.0010     0.5590     0.7610 o          1 X72      -0.402000
     20 Cl21        -3.2160     2.5880    -0.6900 cl         1 X72      -0.133000
     21 HN01         1.6700    -0.8260    -0.2770 hn         1 X72       0.547000
     22 H102        -1.6150    -3.6800     0.5450 hn         1 X72       0.323000
     23 H202        -0.0750    -4.5060     0.5720 hn         1 X72       0.323000
     24 H06         -2.7120    -2.2250     0.2460 ha         1 X72       0.143000
     25 H09         -0.4450     2.0920    -0.6900 ha         1 X72       0.138000
     26 H113         1.8660     2.1120    -0.5040 h1         1 X72       0.057700
     27 H213         1.7910     1.4570     1.1480 h1         1 X72       0.057700
     28 H15          3.7950     1.4660    -2.0480 h4         1 X72       0.030100
     29 H16          7.1290    -0.1920    -0.2100 h5         1 X72       0.056100
     30 H17          3.6530     0.0290     2.0500 h4         1 X72       0.030100
     31 C12          0.0350    -2.5170     0.1610 c          1 X72       0.636700
@<TRIPOS>BOND
     1     1     8 1   
     2     1    12 1   
     3     1    21 1   
     4     2    22 1   
     5     2    23 1   
     6     2    31 1   
     7     3    14 ar  
     8     3    15 ar  
     9     4    15 ar  
    10     4    16 ar  
    11     5    11 1   
    12     5    18 1   
    13     5    19 1   
    14     6     7 ar  
    15     6    11 ar  
    16     6    24 1   
    17     7     8 ar  
    18     7    31 1   
    19     8     9 ar  
    20     9    10 ar  
    21     9    25 1   
    22    10    11 ar  
    23    10    20 1   
    24    12    13 1   
    25    12    26 1   
    26    12    27 1   
    27    13    14 ar  
    28    13    16 ar  
    29    14    28 1   
    30    15    29 1   
    31    16    30 1   
    32    17    31 2   
@<TRIPOS>SUBSTRUCTURE
     1 X72         1 TEMP              0 ****  ****    0 ROOT
