@<TRIPOS>MOLECULE
X72
   31    32     1     0     0
SMALL
bcc


@<TRIPOS>ATOM
      1 N01          1.2450    -0.0500     0.0180 nu         1 X72      -0.750600
      2 N02         -0.7700    -3.7380    -0.1850 nt         1 X72      -0.655000
      3 N03          5.4370     0.1880    -1.2180 nb         1 X72      -0.694500
      4 N04          5.5390     0.5600     1.1140 nb         1 X72      -0.694500
      5 N05         -4.3410    -0.1960     0.0620 no         1 X72       0.332200
      6 C06         -2.1860    -1.2890     0.0410 ca         1 X72       0.023000
      7 C07         -0.8080    -1.3290     0.0360 ca         1 X72      -0.268600
      8 C08         -0.0910    -0.0950    -0.0080 ca         1 X72       0.302600
      9 C09         -0.8360     1.1000    -0.1060 ca         1 X72      -0.265000
     10 C10         -2.2090     1.1070    -0.0900 ca         1 X72       0.162400
     11 C11         -2.9090    -0.1040    -0.0040 ca         1 X72      -0.271200
     12 C13          2.0170     1.1730    -0.0310 c3         1 X72       0.284100
     13 C14          3.4780     0.8470    -0.0390 ca         1 X72      -0.359900
     14 C15          4.1470     0.4940    -1.2030 ca         1 X72       0.458200
     15 C16          6.0690     0.2350    -0.0550 ca         1 X72       0.657900
     16 C17          4.2470     0.8620     1.1150 ca         1 X72       0.458200
     17 O18          1.0990    -2.6790     0.4580 o          1 X72      -0.643100
     18 O19         -4.8570    -1.2420    -0.2720 o          1 X72      -0.212000
     19 O20         -4.9680     0.7600     0.4590 o          1 X72      -0.212000
     20 CL21        -2.9750     2.6360    -0.2560 cl         1 X72      -0.041400
     21 HN01         1.7110    -0.9280     0.2060 hn         1 X72       0.491800
     22 H102        -1.6730    -3.7320    -0.6250 hn         1 X72       0.323000
     23 H202        -0.2970    -4.6270    -0.1440 hn         1 X72       0.323000
     24 H06         -2.7490    -2.2070     0.1200 ha         1 X72       0.161000
     25 H09         -0.3210     2.0460    -0.1870 ha         1 X72       0.156000
     26 H113         1.7650     1.7420    -0.9300 h1         1 X72       0.057700
     27 H213         1.7880     1.8150     0.8260 h1         1 X72       0.057700
     28 H15          3.6230     0.4630    -2.1540 h4         1 X72       0.030100
     29 H16          7.1240    -0.0130    -0.0620 h5         1 X72       0.056100
     30 H17          3.8050     1.1330     2.0680 h4         1 X72       0.030100
     31 C12         -0.0830    -2.6290     0.1160 c          1 X72       0.703700
@<TRIPOS>BOND
     1     1     8 1   
     2     1    12 1   
     3     1    21 1   
     4     2    22 1   
     5     2    23 1   
     6     2    31 1   
     7     3    14 ar  
     8     3    15 ar  
     9     4    15 ar  
    10     4    16 ar  
    11     5    11 1   
    12     5    18 1   
    13     5    19 1   
    14     6     7 ar  
    15     6    11 ar  
    16     6    24 1   
    17     7     8 ar  
    18     7    31 1   
    19     8     9 ar  
    20     9    10 ar  
    21     9    25 1   
    22    10    11 ar  
    23    10    20 1   
    24    12    13 1   
    25    12    26 1   
    26    12    27 1   
    27    13    14 ar  
    28    13    16 ar  
    29    14    28 1   
    30    15    29 1   
    31    16    30 1   
    32    17    31 2   
@<TRIPOS>SUBSTRUCTURE
     1 X72         1 TEMP              0 ****  ****    0 ROOT
