@<TRIPOS>MOLECULE
X73
   32    33     1     0     0
SMALL
abcg2


@<TRIPOS>ATOM
      1 N01          0.0730     0.2510     0.1960 nu         1 X73      -0.948200
      2 N02         -2.1350    -3.2340    -0.3120 nt         1 X73      -0.590000
      3 N03          4.5890     0.7550     0.9070 nb         1 X73      -0.656000
      4 N04         -5.4840     0.5860    -0.1040 no         1 X73       0.708200
      5 C05         -3.4430    -0.7430     0.0410 ca         1 X73       0.038000
      6 C06         -2.0680    -0.8600     0.1020 ca         1 X73      -0.269600
      7 C07         -1.2630     0.3200     0.1080 ca         1 X73       0.434000
      8 C08         -1.9170     1.5690    -0.0050 ca         1 X73      -0.239000
      9 C09         -3.2820     1.6590    -0.0850 ca         1 X73       0.034000
     10 C10         -4.0550     0.4990    -0.0520 ca         1 X73      -0.273200
     11 C12          0.9550     1.3960     0.1960 c3         1 X73       0.278100
     12 C13          2.3740     0.9440     0.0210 ca         1 X73      -0.173300
     13 C14          3.3190     1.1340     1.0170 ca         1 X73       0.372900
     14 C15          4.9540     0.1680    -0.2040 ca         1 X73       0.453000
     15 C16          4.1100    -0.0870    -1.2760 ca         1 X73      -0.150000
     16 C17          2.7940     0.3140    -1.1490 ca         1 X73      -0.047000
     17 O18         -0.3330    -2.3690     0.7100 o          1 X73      -0.639100
     18 O19         -6.1310    -0.4390    -0.0440 o          1 X73      -0.414000
     19 O20         -5.9900     1.6850    -0.2070 o          1 X73      -0.414000
     20 CL21         6.6170    -0.3150    -0.3160 cl         1 X73      -0.159000
     21 HN01         0.4510    -0.6460     0.4700 hn         1 X73       0.541000
     22 H102        -2.9470    -3.1100    -0.8900 hn         1 X73       0.321000
     23 H202        -1.7420    -4.1600    -0.2750 hn         1 X73       0.321000
     24 H05         -4.0600    -1.6300     0.0830 ha         1 X73       0.145000
     25 H08         -1.3400     2.4820    -0.0070 ha         1 X73       0.127000
     26 H09         -3.7430     2.6340    -0.1560 ha         1 X73       0.149000
     27 H112         0.6930     2.0640    -0.6290 h1         1 X73       0.056700
     28 H212         0.8590     1.9770     1.1190 h1         1 X73       0.056700
     29 H14          3.0420     1.6170     1.9480 h4         1 X73       0.029100
     30 H16          4.4690    -0.5740    -2.1720 ha         1 X73       0.144000
     31 H17          2.0980     0.1420    -1.9600 ha         1 X73       0.130000
     32 C11         -1.4370    -2.2090     0.1920 c          1 X73       0.632700
@<TRIPOS>BOND
     1     1     7 1   
     2     1    11 1   
     3     1    21 1   
     4     2    22 1   
     5     2    23 1   
     6     2    32 1   
     7     3    13 ar  
     8     3    14 ar  
     9     4    10 1   
    10     4    18 1   
    11     4    19 1   
    12     5     6 ar  
    13     5    10 ar  
    14     5    24 1   
    15     6     7 ar  
    16     6    32 1   
    17     7     8 ar  
    18     8     9 ar  
    19     8    25 1   
    20     9    10 ar  
    21     9    26 1   
    22    11    12 1   
    23    11    27 1   
    24    11    28 1   
    25    12    13 ar  
    26    12    16 ar  
    27    13    29 1   
    28    14    15 ar  
    29    14    20 1   
    30    15    16 ar  
    31    15    30 1   
    32    16    31 1   
    33    17    32 2   
@<TRIPOS>SUBSTRUCTURE
     1 X73         1 TEMP              0 ****  ****    0 ROOT
