@<TRIPOS>MOLECULE
X73
   32    33     1     0     0
SMALL
No Charge or Current Charge


@<TRIPOS>ATOM
      1 N01          0.0750     0.3950     0.2890 nu         1 X73      -0.948200
      2 N02         -2.0630    -3.2020    -0.5380 nt         1 X73      -0.590000
      3 N03          4.5370     1.0150     0.9940 nb         1 X73      -0.656000
      4 N04         -5.6220     0.5560     0.0570 no         1 X73       0.708200
      5 C05         -3.4480    -0.7240    -0.0780 ca         1 X73       0.038000
      6 C06         -2.0320    -0.7930    -0.0250 ca         1 X73      -0.269600
      7 C07         -1.3110     0.3960     0.2250 ca         1 X73       0.434000
      8 C08         -1.9890     1.6070     0.4240 ca         1 X73      -0.239000
      9 C09         -3.3860     1.6690     0.3700 ca         1 X73       0.034000
     10 C10         -4.1270     0.5000     0.1160 ca         1 X73      -0.273200
     11 C12          0.9640     1.4360    -0.2270 c3         1 X73       0.278100
     12 C13          2.3940     0.9450    -0.1490 ca         1 X73      -0.173300
     13 C14          3.2480     1.4100     0.8690 ca         1 X73       0.372900
     14 C15          5.0070     0.1290     0.0890 ca         1 X73       0.453000
     15 C16          4.2310    -0.3900    -0.9600 ca         1 X73      -0.150000
     16 C17          2.8960     0.0230    -1.0870 ca         1 X73      -0.047000
     17 O18         -0.1170    -2.2600    -0.1340 o          1 X73      -0.639100
     18 O19         -6.2390    -0.4920    -0.1700 o          1 X73      -0.414000
     19 O20         -6.1730     1.6490     0.2370 o          1 X73      -0.414000
     20 Cl21         6.6830    -0.3630     0.2810 cl         1 X73      -0.159000
     21 HN01         0.4390    -0.5630     0.2000 hn         1 X73       0.541000
     22 H102        -3.0620    -3.1360    -0.6400 hn         1 X73       0.321000
     23 H202        -1.5940    -4.0840    -0.6750 hn         1 X73       0.321000
     24 H05         -4.0340    -1.6210    -0.2650 ha         1 X73       0.145000
     25 H08         -1.4340     2.5160     0.6310 ha         1 X73       0.127000
     26 H09         -3.8800     2.6270     0.5290 ha         1 X73       0.149000
     27 H112         0.7160     1.6630    -1.2740 h1         1 X73       0.056700
     28 H212         0.8530     2.3640     0.3520 h1         1 X73       0.056700
     29 H14          2.8910     2.1240     1.6110 h4         1 X73       0.029100
     30 H16          4.6640    -1.1000    -1.6580 ha         1 X73       0.144000
     31 H17          2.2690    -0.3610    -1.8900 ha         1 X73       0.130000
     32 C11         -1.3250    -2.1160    -0.2330 c          1 X73       0.632700
@<TRIPOS>BOND
     1     1     7 1   
     2     1    11 1   
     3     1    21 1   
     4     2    22 1   
     5     2    23 1   
     6     2    32 1   
     7     3    13 ar  
     8     3    14 ar  
     9     4    10 1   
    10     4    18 1   
    11     4    19 1   
    12     5     6 ar  
    13     5    10 ar  
    14     5    24 1   
    15     6     7 ar  
    16     6    32 1   
    17     7     8 ar  
    18     8     9 ar  
    19     8    25 1   
    20     9    10 ar  
    21     9    26 1   
    22    11    12 1   
    23    11    27 1   
    24    11    28 1   
    25    12    13 ar  
    26    12    16 ar  
    27    13    29 1   
    28    14    15 ar  
    29    14    20 1   
    30    15    16 ar  
    31    15    30 1   
    32    16    31 1   
    33    17    32 2   
@<TRIPOS>SUBSTRUCTURE
     1 X73         1 TEMP              0 ****  ****    0 ROOT
