@<TRIPOS>MOLECULE
X74
   83    86     1     0     0
SMALL
abcg2


@<TRIPOS>ATOM
      1 C01        -36.7990   -11.3380    84.0760 c3         1 X74      -0.110100
      2 C02        -36.3150   -12.7130    84.5040 c3         1 X74       0.219000
      3 C03        -37.1450   -13.8010    83.8330 c3         1 X74      -0.110100
      4 C04        -34.8380   -12.8880    84.1740 c3         1 X74      -0.110100
      5 C06        -35.8840   -13.6270    86.7170 c          1 X74       0.650100
      6 C09        -35.9860   -15.9200    87.5910 c3         1 X74       0.129700
      7 C10        -37.1120   -16.6630    88.3070 c3         1 X74       0.040600
      8 C12        -37.8250   -19.1700    87.1740 c3         1 X74      -0.008700
      9 C13        -38.6830   -19.8870    86.1260 c3         1 X74      -0.009100
     10 C14        -38.3860   -21.3620    86.0610 ca         1 X74      -0.088300
     11 C15        -37.1620   -21.8190    85.5740 ca         1 X74      -0.102000
     12 C16        -36.8890   -23.1770    85.5040 ca         1 X74      -0.115500
     13 C17        -37.8390   -24.1030    85.9180 ca         1 X74      -0.109000
     14 C18        -39.0590   -23.6580    86.4080 ca         1 X74      -0.115500
     15 C19        -39.3250   -22.2970    86.4850 ca         1 X74      -0.102000
     16 C20        -38.0260   -19.7900    88.5500 c          1 X74       0.598100
     17 C23        -36.8930   -20.9400    90.4050 c3         1 X74       0.111000
     18 C24        -37.6250   -22.2750    90.4890 c3         1 X74      -0.091400
     19 C25        -37.1250   -23.3350    89.5100 c3         1 X74      -0.032100
     20 C26        -35.6870   -23.7220    89.7040 ca         1 X74      -0.124300
     21 C27        -34.7320   -23.5560    88.7090 ca         1 X74      -0.078000
     22 C28        -33.4240   -23.9540    88.9440 ca         1 X74      -0.171000
     23 C29        -33.1080   -24.4990    90.1770 ca         1 X74       0.327900
     24 C31        -35.2520   -24.2870    90.9030 ca         1 X74       0.333900
     25 C32        -35.1690   -16.7790    86.6220 c3         1 X74      -0.063100
     26 C33        -34.4810   -17.9880    87.1990 ca         1 X74      -0.063300
     27 C34        -34.1390   -19.0830    86.3450 ca         1 X74      -0.040000
     28 C35        -34.3960   -19.0770    84.9510 ca         1 X74      -0.105000
     29 C36        -34.0590   -20.1430    84.1600 ca         1 X74      -0.107000
     30 C37        -33.4490   -21.2830    84.7180 ca         1 X74      -0.106000
     31 C38        -33.1810   -21.3200    86.0590 ca         1 X74      -0.101000
     32 C39        -33.5080   -20.2310    86.8990 ca         1 X74      -0.041000
     33 C40        -33.2110   -20.2670    88.2820 ca         1 X74      -0.107000
     34 C41        -33.5170   -19.1980    89.0760 ca         1 X74      -0.108000
     35 C42        -34.1490   -18.0630    88.5290 ca         1 X74      -0.115000
     36 N08        -36.5390   -14.7920    86.8700 ns         1 X74      -0.522900
     37 N22        -36.9220   -20.3210    89.0940 ns         1 X74      -0.505900
     38 N30        -34.0050   -24.6650    91.1440 nb         1 X74      -0.663000
     39 O05        -36.5440   -12.7370    85.9450 os         1 X74      -0.488100
     40 O07        -34.8370   -13.3550    87.2630 o          1 X74      -0.499000
     41 O21        -39.1160   -19.7900    89.0990 o          1 X74      -0.585100
     42 S11        -38.3450   -17.4240    87.2060 ss         1 X74      -0.413000
     43 H1         -37.8530   -11.1980    84.3190 hc         1 X74       0.048589
     44 H2         -36.2230   -10.5470    84.5590 hc         1 X74       0.048589
     45 H3         -36.6890   -11.2250    82.9970 hc         1 X74       0.048589
     46 H4         -36.8040   -14.8040    84.0930 hc         1 X74       0.048589
     47 H5         -38.2000   -13.7110    84.0950 hc         1 X74       0.048589
     48 H6         -37.0630   -13.7090    82.7490 hc         1 X74       0.048589
     49 H7         -34.4660   -13.8810    84.4340 hc         1 X74       0.048589
     50 H8         -34.7010   -12.7670    83.1000 hc         1 X74       0.048589
     51 H9         -34.2200   -12.1440    84.6760 hc         1 X74       0.048589
     52 H10        -35.3400   -15.5120    88.3700 h1         1 X74       0.085700
     53 H11        -37.6530   -15.9590    88.9400 h1         1 X74       0.086200
     54 H12        -36.7040   -17.4280    88.9660 h1         1 X74       0.086200
     55 H13        -36.7780   -19.2230    86.8720 h1         1 X74       0.078700
     56 H14        -38.4900   -19.4250    85.1550 hc         1 X74       0.069200
     57 H15        -39.7400   -19.7290    86.3520 hc         1 X74       0.069200
     58 H16        -36.4170   -21.1110    85.2280 ha         1 X74       0.118500
     59 H17        -35.9350   -23.5140    85.1190 ha         1 X74       0.113000
     60 H18        -37.6270   -25.1630    85.8610 ha         1 X74       0.114000
     61 H19        -39.8050   -24.3710    86.7360 ha         1 X74       0.113000
     62 H20        -40.2780   -21.9580    86.8730 ha         1 X74       0.118500
     63 H21        -35.8420   -21.0690    90.6650 h1         1 X74       0.048700
     64 H22        -37.3160   -20.2510    91.1390 h1         1 X74       0.048700
     65 H23        -38.6900   -22.1160    90.3160 hc         1 X74       0.057200
     66 H24        -37.5320   -22.6340    91.5170 hc         1 X74       0.057200
     67 H25        -37.2760   -22.9940    88.4850 hc         1 X74       0.057200
     68 H26        -37.7530   -24.2240    89.6190 hc         1 X74       0.057200
     69 H27        -35.0180   -23.1310    87.7530 ha         1 X74       0.122000
     70 H28        -32.6590   -23.8530    88.1860 ha         1 X74       0.118000
     71 H29        -32.0950   -24.8190    90.3930 h4         1 X74       0.018100
     72 H30        -35.9640   -24.4450    91.7090 h4         1 X74       0.018100
     73 H31        -34.4170   -16.1360    86.1510 hc         1 X74       0.064700
     74 H32        -35.8430   -17.0790    85.8160 hc         1 X74       0.064700
     75 H33        -34.8570   -18.2160    84.4880 ha         1 X74       0.116000
     76 H34        -34.2650   -20.1100    83.0990 ha         1 X74       0.117000
     77 H35        -33.1920   -22.1230    84.0860 ha         1 X74       0.117000
     78 H36        -32.7020   -22.1880    86.4950 ha         1 X74       0.114000
     79 H37        -32.7360   -21.1460    88.7000 ha         1 X74       0.122000
     80 H38        -33.2830   -19.2170    90.1320 ha         1 X74       0.121000
     81 H39        -34.3690   -17.2410    89.1970 ha         1 X74       0.119000
     82 H40        -37.3920   -14.9400    86.3510 hn         1 X74       0.328500
     83 H41        -36.0570   -20.2740    88.5810 hn         1 X74       0.321500
@<TRIPOS>BOND
     1     1     2 1   
     2     1    43 1   
     3     1    44 1   
     4     1    45 1   
     5     2     3 1   
     6     2     4 1   
     7     2    39 1   
     8     3    46 1   
     9     3    47 1   
    10     3    48 1   
    11     4    49 1   
    12     4    50 1   
    13     4    51 1   
    14     5    36 1   
    15     5    39 1   
    16     5    40 2   
    17     6     7 1   
    18     6    25 1   
    19     6    36 1   
    20     6    52 1   
    21     7    42 1   
    22     7    53 1   
    23     7    54 1   
    24     8     9 1   
    25     8    16 1   
    26     8    42 1   
    27     8    55 1   
    28     9    10 1   
    29     9    56 1   
    30     9    57 1   
    31    10    11 ar  
    32    10    15 ar  
    33    11    12 ar  
    34    11    58 1   
    35    12    13 ar  
    36    12    59 1   
    37    13    14 ar  
    38    13    60 1   
    39    14    15 ar  
    40    14    61 1   
    41    15    62 1   
    42    16    37 1   
    43    16    41 2   
    44    17    18 1   
    45    17    37 1   
    46    17    63 1   
    47    17    64 1   
    48    18    19 1   
    49    18    65 1   
    50    18    66 1   
    51    19    20 1   
    52    19    67 1   
    53    19    68 1   
    54    20    21 ar  
    55    20    24 ar  
    56    21    22 ar  
    57    21    69 1   
    58    22    23 ar  
    59    22    70 1   
    60    23    38 ar  
    61    23    71 1   
    62    24    38 ar  
    63    24    72 1   
    64    25    26 1   
    65    25    73 1   
    66    25    74 1   
    67    26    27 ar  
    68    26    35 ar  
    69    27    28 ar  
    70    27    32 ar  
    71    28    29 ar  
    72    28    75 1   
    73    29    30 ar  
    74    29    76 1   
    75    30    31 ar  
    76    30    77 1   
    77    31    32 ar  
    78    31    78 1   
    79    32    33 ar  
    80    33    34 ar  
    81    33    79 1   
    82    34    35 ar  
    83    34    80 1   
    84    35    81 1   
    85    36    82 1   
    86    37    83 1   
@<TRIPOS>SUBSTRUCTURE
     1 X74         1 TEMP              0 ****  ****    0 ROOT
