@<TRIPOS>MOLECULE
X74
   83    86     1     0     0
SMALL
No Charge or Current Charge


@<TRIPOS>ATOM
      1 C01        -37.2300   -11.4730    83.5940 c3         1 X74      -0.110100
      2 C02        -36.0030   -12.0050    84.3670 c3         1 X74       0.219000
      3 C03        -34.8650   -12.3600    83.3750 c3         1 X74      -0.110100
      4 C04        -35.5710   -10.9770    85.4450 c3         1 X74      -0.110100
      5 C06        -35.6810   -13.9900    85.7990 c          1 X74       0.650100
      6 C09        -35.9340   -16.1280    87.0900 c3         1 X74       0.129700
      7 C10        -37.0980   -16.6750    87.9600 c3         1 X74       0.040600
      8 C12        -38.0990   -19.2390    87.1210 c3         1 X74      -0.008700
      9 C13        -39.0760   -20.0640    86.2570 c3         1 X74      -0.009100
     10 C14        -38.7540   -21.5550    86.2880 ca         1 X74      -0.088300
     11 C15        -37.6040   -22.0420    85.6390 ca         1 X74      -0.102000
     12 C16        -37.2950   -23.4130    85.6740 ca         1 X74      -0.115500
     13 C17        -38.1380   -24.3070    86.3550 ca         1 X74      -0.109000
     14 C18        -39.2880   -23.8270    87.0040 ca         1 X74      -0.115500
     15 C19        -39.5940   -22.4550    86.9730 ca         1 X74      -0.102000
     16 C20        -38.1250   -19.7080    88.5960 c          1 X74       0.598100
     17 C23        -36.7330   -20.7550    90.4140 c3         1 X74       0.111000
     18 C24        -37.4120   -22.1270    90.6250 c3         1 X74      -0.091400
     19 C25        -36.8920   -23.2520    89.6960 c3         1 X74      -0.032100
     20 C26        -35.4190   -23.6410    89.8550 ca         1 X74      -0.124300
     21 C27        -34.7560   -24.2580    88.7780 ca         1 X74      -0.078000
     22 C28        -33.4140   -24.6390    88.9440 ca         1 X74      -0.171000
     23 C29        -32.7770   -24.3930    90.1700 ca         1 X74       0.327900
     24 C31        -34.6970   -23.4460    91.0560 ca         1 X74       0.333900
     25 C32        -35.2170   -17.2000    86.2210 c3         1 X74      -0.063100
     26 C33        -34.5970   -18.4130    86.9460 ca         1 X74      -0.063300
     27 C34        -34.3420   -19.6330    86.2530 ca         1 X74      -0.040000
     28 C35        -34.5820   -19.7750    84.8630 ca         1 X74      -0.105000
     29 C36        -34.3250   -20.9910    84.2070 ca         1 X74      -0.107000
     30 C37        -33.8230   -22.0860    84.9230 ca         1 X74      -0.106000
     31 C38        -33.5650   -21.9600    86.2940 ca         1 X74      -0.101000
     32 C39        -33.8150   -20.7450    86.9590 ca         1 X74      -0.041000
     33 C40        -33.5180   -20.6430    88.3280 ca         1 X74      -0.107000
     34 C41        -33.7150   -19.4300    88.9980 ca         1 X74      -0.108000
     35 C42        -34.2430   -18.3260    88.3140 ca         1 X74      -0.115000
     36 N08        -36.4270   -15.0440    86.2390 ns         1 X74      -0.522900
     37 N22        -36.9350   -20.2240    89.0650 ns         1 X74      -0.505900
     38 N30        -33.4020   -23.8070    91.2150 nb         1 X74      -0.663000
     39 O05        -36.4810   -13.2110    85.0090 os         1 X74      -0.488100
     40 O07        -34.5090   -13.8040    86.0800 o          1 X74      -0.499000
     41 O21        -39.1160   -19.6120    89.3080 o          1 X74      -0.585100
     42 S11        -38.4750   -17.4170    86.9480 ss         1 X74      -0.413000
     43 H1         -37.5750   -12.2080    82.8570 hc         1 X74       0.048589
     44 H2         -38.0590   -11.2590    84.2780 hc         1 X74       0.048589
     45 H3         -36.9830   -10.5470    83.0590 hc         1 X74       0.048589
     46 H4         -33.9350   -12.6160    83.8930 hc         1 X74       0.048589
     47 H5         -35.1530   -13.2060    82.7390 hc         1 X74       0.048589
     48 H6         -34.6480   -11.5050    82.7230 hc         1 X74       0.048589
     49 H7         -34.6270   -11.2580    85.9250 hc         1 X74       0.048589
     50 H8         -35.4220    -9.9900    84.9920 hc         1 X74       0.048589
     51 H9         -36.3390   -10.8800    86.2210 hc         1 X74       0.048589
     52 H10        -35.1920   -15.6900    87.7720 h1         1 X74       0.085700
     53 H11        -37.5140   -15.8420    88.5420 h1         1 X74       0.086200
     54 H12        -36.7240   -17.4110    88.6790 h1         1 X74       0.086200
     55 H13        -37.0880   -19.4090    86.7370 h1         1 X74       0.078700
     56 H14        -39.0300   -19.7000    85.2230 hc         1 X74       0.069200
     57 H15        -40.1030   -19.8810    86.5990 hc         1 X74       0.069200
     58 H16        -36.9490   -21.3590    85.1060 ha         1 X74       0.118500
     59 H17        -36.4030   -23.7810    85.1710 ha         1 X74       0.113000
     60 H18        -37.9000   -25.3680    86.3810 ha         1 X74       0.114000
     61 H19        -39.9400   -24.5170    87.5350 ha         1 X74       0.113000
     62 H20        -40.4840   -22.0930    87.4850 ha         1 X74       0.118500
     63 H21        -35.6550   -20.8420    90.5980 h1         1 X74       0.048700
     64 H22        -37.1360   -20.0350    91.1390 h1         1 X74       0.048700
     65 H23        -38.4900   -22.0160    90.4610 hc         1 X74       0.057200
     66 H24        -37.3030   -22.4290    91.6730 hc         1 X74       0.057200
     67 H25        -37.0760   -22.9490    88.6590 hc         1 X74       0.057200
     68 H26        -37.5120   -24.1430    89.8570 hc         1 X74       0.057200
     69 H27        -35.2690   -24.4420    87.8360 ha         1 X74       0.122000
     70 H28        -32.8700   -25.1190    88.1350 ha         1 X74       0.118000
     71 H29        -31.7360   -24.6760    90.3210 h4         1 X74       0.018100
     72 H30        -35.1620   -22.9910    91.9290 h4         1 X74       0.018100
     73 H31        -34.4290   -16.7040    85.6410 hc         1 X74       0.064700
     74 H32        -35.9590   -17.5380    85.4920 hc         1 X74       0.064700
     75 H33        -34.9520   -18.9520    84.2600 ha         1 X74       0.116000
     76 H34        -34.5140   -21.0820    83.1400 ha         1 X74       0.117000
     77 H35        -33.6240   -23.0260    84.4140 ha         1 X74       0.117000
     78 H36        -33.1540   -22.8060    86.8370 ha         1 X74       0.114000
     79 H37        -33.1100   -21.4940    88.8670 ha         1 X74       0.122000
     80 H38        -33.4600   -19.3460    90.0520 ha         1 X74       0.121000
     81 H39        -34.3710   -17.4020    88.8700 ha         1 X74       0.119000
     82 H40        -37.3860   -15.0730    85.9180 hn         1 X74       0.328500
     83 H41        -36.1550   -20.2520    88.4180 hn         1 X74       0.321500
@<TRIPOS>BOND
     1     1     2 1   
     2     1    43 1   
     3     1    44 1   
     4     1    45 1   
     5     2     3 1   
     6     2     4 1   
     7     2    39 1   
     8     3    46 1   
     9     3    47 1   
    10     3    48 1   
    11     4    49 1   
    12     4    50 1   
    13     4    51 1   
    14     5    36 1   
    15     5    39 1   
    16     5    40 2   
    17     6     7 1   
    18     6    25 1   
    19     6    36 1   
    20     6    52 1   
    21     7    42 1   
    22     7    53 1   
    23     7    54 1   
    24     8     9 1   
    25     8    16 1   
    26     8    42 1   
    27     8    55 1   
    28     9    10 1   
    29     9    56 1   
    30     9    57 1   
    31    10    11 ar  
    32    10    15 ar  
    33    11    12 ar  
    34    11    58 1   
    35    12    13 ar  
    36    12    59 1   
    37    13    14 ar  
    38    13    60 1   
    39    14    15 ar  
    40    14    61 1   
    41    15    62 1   
    42    16    37 1   
    43    16    41 2   
    44    17    18 1   
    45    17    37 1   
    46    17    63 1   
    47    17    64 1   
    48    18    19 1   
    49    18    65 1   
    50    18    66 1   
    51    19    20 1   
    52    19    67 1   
    53    19    68 1   
    54    20    21 ar  
    55    20    24 ar  
    56    21    22 ar  
    57    21    69 1   
    58    22    23 ar  
    59    22    70 1   
    60    23    38 ar  
    61    23    71 1   
    62    24    38 ar  
    63    24    72 1   
    64    25    26 1   
    65    25    73 1   
    66    25    74 1   
    67    26    27 ar  
    68    26    35 ar  
    69    27    28 ar  
    70    27    32 ar  
    71    28    29 ar  
    72    28    75 1   
    73    29    30 ar  
    74    29    76 1   
    75    30    31 ar  
    76    30    77 1   
    77    31    32 ar  
    78    31    78 1   
    79    32    33 ar  
    80    33    34 ar  
    81    33    79 1   
    82    34    35 ar  
    83    34    80 1   
    84    35    81 1   
    85    36    82 1   
    86    37    83 1   
@<TRIPOS>SUBSTRUCTURE
     1 X74         1 TEMP              0 ****  ****    0 ROOT
