@<TRIPOS>MOLECULE
X75
   32    33     1     0     0
SMALL
No Charge or Current Charge


@<TRIPOS>ATOM
      1 N01          0.4270     0.0760    -0.3400 nu         1 X75      -0.943200
      2 N02         -1.4310    -3.7200     0.2440 nt         1 X75      -0.590000
      3 N03          4.8150     0.2870     1.1470 nb         1 X75      -0.656000
      4 N04         -5.2320    -0.2160     0.0140 no         1 X75       0.712200
      5 C05         -2.9950    -1.3190     0.0100 ca         1 X75       0.039000
      6 C06         -1.5800    -1.2820    -0.0720 ca         1 X75      -0.268600
      7 C07         -0.9540    -0.0270    -0.2510 ca         1 X75       0.439000
      8 C08         -1.7200     1.1390    -0.3600 ca         1 X75      -0.244000
      9 C09         -3.1130     1.0950    -0.2780 ca         1 X75       0.252000
     10 C10         -3.7570    -0.1380    -0.0830 ca         1 X75      -0.270200
     11 C12          1.2550     1.1780     0.1550 c3         1 X75       0.276100
     12 C13          2.7170     0.7970     0.0330 ca         1 X75      -0.174300
     13 C14          3.5040     0.6210     1.1880 ca         1 X75       0.373900
     14 C15          5.3790     0.1210    -0.0690 ca         1 X75       0.454000
     15 C16          4.6770     0.2780    -1.2740 ca         1 X75      -0.150000
     16 C17          3.3170     0.6250    -1.2280 ca         1 X75      -0.047000
     17 O18          0.4390    -2.6050    -0.0710 o          1 X75      -0.637100
     18 O19         -5.7920     0.4970     0.8550 o          1 X75      -0.402000
     19 O20         -5.7920    -1.1470    -0.5780 o          1 X75      -0.402000
     20 Cl21        -4.0050     2.6040    -0.4780 cl         1 X75      -0.134000
     21 Cl22         7.0820    -0.3120    -0.0840 cl         1 X75      -0.158000
     22 HN01         0.8690    -0.8520    -0.3070 hn         1 X75       0.543000
     23 H102        -2.4330    -3.7390     0.3390 hn         1 X75       0.322500
     24 H202        -0.8960    -4.5720     0.3110 hn         1 X75       0.322500
     25 H05         -3.5220    -2.2610     0.1530 ha         1 X75       0.146000
     26 H08         -1.2380     2.0960    -0.5250 ha         1 X75       0.139000
     27 H112         1.0700     2.0930    -0.4260 h1         1 X75       0.058200
     28 H212         1.0120     1.3930     1.2050 h1         1 X75       0.058200
     29 H14          3.0730     0.7490     2.1800 h4         1 X75       0.029100
     30 H16          5.1830     0.1330    -2.2230 ha         1 X75       0.145000
     31 H17          2.7440     0.7550    -2.1450 ha         1 X75       0.130000
     32 C11         -0.7760    -2.5600     0.0320 c          1 X75       0.634700
@<TRIPOS>BOND
     1     1     7 1   
     2     1    11 1   
     3     1    22 1   
     4     2    23 1   
     5     2    24 1   
     6     2    32 1   
     7     3    13 ar  
     8     3    14 ar  
     9     4    10 1   
    10     4    18 1   
    11     4    19 1   
    12     5     6 ar  
    13     5    10 ar  
    14     5    25 1   
    15     6     7 ar  
    16     6    32 1   
    17     7     8 ar  
    18     8     9 ar  
    19     8    26 1   
    20     9    10 ar  
    21     9    20 1   
    22    11    12 1   
    23    11    27 1   
    24    11    28 1   
    25    12    13 ar  
    26    12    16 ar  
    27    13    29 1   
    28    14    15 ar  
    29    14    21 1   
    30    15    16 ar  
    31    15    30 1   
    32    16    31 1   
    33    17    32 2   
@<TRIPOS>SUBSTRUCTURE
     1 X75         1 TEMP              0 ****  ****    0 ROOT
