@<TRIPOS>MOLECULE
X76
   30    31     1     0     0
SMALL
No Charge or Current Charge


@<TRIPOS>ATOM
      1 N01         -0.0310     0.4670     0.2790 nu         1 X76      -0.965200
      2 N02         -2.7350    -2.7480    -0.5010 nt         1 X76      -0.598000
      3 N03          4.4790     0.3720     1.0690 nb         1 X76      -0.666000
      4 C04         -3.6850    -0.0670    -0.1490 ca         1 X76      -0.038000
      5 C05         -2.3000    -0.3680    -0.0640 ca         1 X76      -0.245600
      6 C06         -1.3980     0.6960     0.1850 ca         1 X76       0.387000
      7 C07         -1.8770     2.0080     0.3520 ca         1 X76      -0.215000
      8 C08         -3.2470     2.2880     0.2650 ca         1 X76      -0.036000
      9 C09         -4.1480     1.2480     0.0130 ca         1 X76      -0.184000
     10 C11          1.0310     1.3590    -0.1890 c3         1 X76       0.276100
     11 C12          2.3630     0.6440    -0.0940 ca         1 X76      -0.161300
     12 C13          3.2710     0.9690     0.9320 ca         1 X76       0.349900
     13 C14          4.8160    -0.5820     0.1720 ca         1 X76       0.342900
     14 C15          3.9730    -0.9700    -0.8830 ca         1 X76      -0.167000
     15 C16          2.7220    -0.3490    -1.0240 ca         1 X76      -0.051000
     16 O17         -0.6490    -2.1340    -0.1560 o          1 X76      -0.642100
     17 HN01         0.1790    -0.5360     0.1880 hn         1 X76       0.525000
     18 H102        -3.7110    -2.5100    -0.5790 hn         1 X76       0.314000
     19 H202        -2.4280    -3.7010    -0.6180 hn         1 X76       0.314000
     20 H04         -4.4230    -0.8420    -0.3400 ha         1 X76       0.105000
     21 H07         -1.1880     2.8210     0.5560 ha         1 X76       0.114000
     22 H08         -3.6080     3.3070     0.3960 ha         1 X76       0.110000
     23 H09         -5.2130     1.4590    -0.0550 ha         1 X76       0.117000
     24 H111         0.8500     1.6450    -1.2350 h1         1 X76       0.045200
     25 H211         1.0560     2.2780     0.4120 h1         1 X76       0.045200
     26 H13          3.0260     1.7330     1.6690 h4         1 X76       0.019100
     27 H14          5.7920    -1.0490     0.3020 h4         1 X76       0.019100
     28 H15          4.2910    -1.7420    -1.5780 ha         1 X76       0.125000
     29 H16          2.0490    -0.6310    -1.8330 ha         1 X76       0.127000
     30 C10         -1.8190    -1.7940    -0.2400 c          1 X76       0.631700
@<TRIPOS>BOND
     1     1     6 1   
     2     1    10 1   
     3     1    17 1   
     4     2    18 1   
     5     2    19 1   
     6     2    30 1   
     7     3    12 ar  
     8     3    13 ar  
     9     4     5 ar  
    10     4     9 ar  
    11     4    20 1   
    12     5     6 ar  
    13     5    30 1   
    14     6     7 ar  
    15     7     8 ar  
    16     7    21 1   
    17     8     9 ar  
    18     8    22 1   
    19     9    23 1   
    20    10    11 1   
    21    10    24 1   
    22    10    25 1   
    23    11    12 ar  
    24    11    15 ar  
    25    12    26 1   
    26    13    14 ar  
    27    13    27 1   
    28    14    15 ar  
    29    14    28 1   
    30    15    29 1   
    31    16    30 2   
@<TRIPOS>SUBSTRUCTURE
     1 X76         1 TEMP              0 ****  ****    0 ROOT
