@<TRIPOS>MOLECULE
X76
   30    31     1     0     0
SMALL
bcc


@<TRIPOS>ATOM
      1 N01         -0.0260     0.2960     0.0210 nu         1 X76      -0.771600
      2 N02         -2.8430    -2.7410    -0.3390 nt         1 X76      -0.665000
      3 N03          4.4690     0.1370     1.0400 nb         1 X76      -0.666000
      4 C04         -3.6930    -0.0490     0.0110 ca         1 X76      -0.056000
      5 C05         -2.3460    -0.4130     0.0380 ca         1 X76      -0.245600
      6 C06         -1.3530     0.6030     0.0050 ca         1 X76       0.248600
      7 C07         -1.7820     1.9390    -0.0880 ca         1 X76      -0.233000
      8 C08         -3.1250     2.2610    -0.1290 ca         1 X76      -0.054000
      9 C09         -4.0980     1.2710    -0.0710 ca         1 X76      -0.202000
     10 C11          1.0120     1.2950     0.1080 c3         1 X76       0.276100
     11 C12          2.3580     0.6350     0.0130 ca         1 X76      -0.226600
     12 C13          3.2670     0.7020     1.0620 ca         1 X76       0.415200
     13 C14          4.8170    -0.5340    -0.0490 ca         1 X76       0.408200
     14 C15          3.9880    -0.6700    -1.1550 ca         1 X76      -0.250300
     15 C16          2.7390    -0.0750    -1.1210 ca         1 X76      -0.069000
     16 O17         -0.8930    -2.2080     0.6300 o          1 X76      -0.642100
     17 HN01         0.1930    -0.6260     0.3680 hn         1 X76       0.469800
     18 H102        -3.6460    -2.4810    -0.8830 hn         1 X76       0.314000
     19 H202        -2.6180    -3.7220    -0.2980 hn         1 X76       0.314000
     20 H04         -4.4550    -0.8150     0.0840 ha         1 X76       0.123000
     21 H07         -1.0560     2.7390    -0.1150 ha         1 X76       0.132000
     22 H08         -3.4120     3.3030    -0.1920 ha         1 X76       0.128000
     23 H09         -5.1500     1.5200    -0.0810 ha         1 X76       0.135000
     24 H111         0.9060     2.0100    -0.7130 h1         1 X76       0.045200
     25 H211         0.9530     1.8760     1.0370 h1         1 X76       0.045200
     26 H13          3.0040     1.2430     1.9660 h4         1 X76       0.019100
     27 H14          5.8010    -0.9900    -0.0460 h4         1 X76       0.019100
     28 H15          4.3200    -1.2280    -2.0200 ha         1 X76       0.143000
     29 H16          2.0660    -0.1590    -1.9660 ha         1 X76       0.145000
     30 C10         -1.9610    -1.8470     0.1340 c          1 X76       0.698700
@<TRIPOS>BOND
     1     1     6 1   
     2     1    10 1   
     3     1    17 1   
     4     2    18 1   
     5     2    19 1   
     6     2    30 1   
     7     3    12 ar  
     8     3    13 ar  
     9     4     5 ar  
    10     4     9 ar  
    11     4    20 1   
    12     5     6 ar  
    13     5    30 1   
    14     6     7 ar  
    15     7     8 ar  
    16     7    21 1   
    17     8     9 ar  
    18     8    22 1   
    19     9    23 1   
    20    10    11 1   
    21    10    24 1   
    22    10    25 1   
    23    11    12 ar  
    24    11    15 ar  
    25    12    26 1   
    26    13    14 ar  
    27    13    27 1   
    28    14    15 ar  
    29    14    28 1   
    30    15    29 1   
    31    16    30 2   
@<TRIPOS>SUBSTRUCTURE
     1 X76         1 TEMP              0 ****  ****    0 ROOT
