@<TRIPOS>MOLECULE
X77
   67    70     1     0     0
SMALL
bcc


@<TRIPOS>ATOM
      1 C02         -0.0270    -2.4150    -0.5710 c          1 X77       0.622600
      2 C04         -0.5560     0.0040    -0.8840 c3         1 X77       0.101000
      3 C05         -1.4850     0.2560     0.3150 c          1 X77       0.665100
      4 C07         -3.5640     1.3800     0.9830 c6         1 X77       0.110700
      5 C08         -4.1500     2.7630     0.7150 c6         1 X77      -0.090400
      6 C09         -5.3040     3.0620     1.6690 c6         1 X77      -0.071900
      7 C10         -6.3830     1.9860     1.6020 c6         1 X77      -0.076400
      8 C11         -5.7930     0.6040     1.8630 c6         1 X77      -0.071900
      9 C12         -4.6470     0.3040     0.9020 c6         1 X77      -0.090400
     10 C14          0.1990     1.2460    -1.2940 ca         1 X77      -0.219600
     11 C15          0.4600     1.4890    -2.6350 ca         1 X77      -0.076000
     12 C16          1.1790     2.6180    -2.9910 ca         1 X77      -0.254300
     13 C17          1.6100     3.4680    -1.9850 ca         1 X77       0.410200
     14 C19          0.6730     2.1710    -0.3690 ca         1 X77       0.433200
     15 C20          1.6830    -0.8180    -0.2040 ca         1 X77       0.040600
     16 C21          1.9720    -0.5710     1.1310 ca         1 X77      -0.114000
     17 C22          3.2640    -0.2540     1.5130 ca         1 X77      -0.126500
     18 C23          4.3070    -0.1760     0.5870 ca         1 X77      -0.058300
     19 C24          5.7100     0.1920     1.0570 c3         1 X77       0.000300
     20 C25          6.1770    -0.8200     2.1120 c3         1 X77      -0.082433
     21 C26          6.7250     0.1920    -0.0850 c3         1 X77      -0.082433
     22 C27          5.6760     1.5980     1.6740 c3         1 X77      -0.082433
     23 C28          3.9970    -0.4350    -0.7450 ca         1 X77      -0.126500
     24 C29          2.7030    -0.7530    -1.1380 ca         1 X77      -0.114000
     25 C30         -1.4090    -2.8280    -0.8850 cc         1 X77       0.247800
     26 C31         -1.7880    -4.1490    -0.9210 cd         1 X77      -0.178600
     27 C33         -3.4870    -2.8440    -1.3580 cd         1 X77       0.388400
     28 N03          0.3500    -1.1070    -0.6230 n          1 X77      -0.374000
     29 N06         -2.4790     1.1150     0.0570 ns         1 X77      -0.557900
     30 N18          1.3590     3.2550    -0.6980 nb         1 X77      -0.666000
     31 N32         -3.1060    -4.1340    -1.2240 na         1 X77      -0.298900
     32 N34         -2.4880    -2.0320    -1.1600 nc         1 X77      -0.677000
     33 O01          0.7860    -3.2830    -0.2770 o          1 X77      -0.594100
     34 H041        -1.1970    -0.2690    -1.7220 h1         1 X77       0.092700
     35 H071        -3.1420     1.3760     1.9920 h1         1 X77       0.077700
     36 H081        -3.3690     3.5210     0.8130 hc         1 X77       0.045450
     37 H082        -4.5100     2.8100    -0.3200 hc         1 X77       0.045450
     38 H091        -4.9160     3.1220     2.6910 hc         1 X77       0.041700
     39 H092        -5.7260     4.0430     1.4400 hc         1 X77       0.041700
     40 H101        -7.1760     2.2030     2.3210 hc         1 X77       0.038700
     41 H102        -6.8470     1.9980     0.6100 hc         1 X77       0.038700
     42 H112        -5.4260     0.5540     2.8940 hc         1 X77       0.041700
     43 H111        -6.5640    -0.1640     1.7730 hc         1 X77       0.041700
     44 H121        -5.0300     0.2670    -0.1240 hc         1 X77       0.045450
     45 H122        -4.2120    -0.6750     1.1110 hc         1 X77       0.045450
     46 H151         0.1060     0.8000    -3.3930 ha         1 X77       0.138000
     47 H161         1.3990     2.8400    -4.0260 ha         1 X77       0.142000
     48 H171         2.1750     4.3610    -2.2280 h4         1 X77       0.019100
     49 H191         0.4890     2.0290     0.6910 h4         1 X77       0.033100
     50 H211         1.1810    -0.6140     1.8680 ha         1 X77       0.145000
     51 H221         3.4540    -0.0580     2.5610 ha         1 X77       0.129500
     52 H251         6.2350    -1.8260     1.6920 hc         1 X77       0.035144
     53 H252         7.1700    -0.5540     2.4800 hc         1 X77       0.035144
     54 H253         5.5080    -0.8570     2.9730 hc         1 X77       0.035144
     55 H261         6.4790     0.9260    -0.8560 hc         1 X77       0.035144
     56 H263         7.7120     0.4470     0.3030 hc         1 X77       0.035144
     57 H262         6.8050    -0.7870    -0.5620 hc         1 X77       0.035144
     58 H272         5.0000     1.6520     2.5290 hc         1 X77       0.035144
     59 H273         6.6700     1.8860     2.0200 hc         1 X77       0.035144
     60 H271         5.3460     2.3370     0.9420 hc         1 X77       0.035144
     61 H281         4.7620    -0.3900    -1.5070 ha         1 X77       0.129500
     62 H291         2.4870    -0.9430    -2.1820 ha         1 X77       0.145000
     63 H311        -1.2420    -5.0620    -0.7600 h4         1 X77       0.198000
     64 H331        -4.4990    -2.5580    -1.5980 h5         1 X77       0.058100
     65 H061        -2.6120     1.4130    -0.8970 hn         1 X77       0.308500
     66 H1          -3.6980    -4.9430    -1.3320 hn         1 X77       0.307700
     67 O13         -1.3040    -0.2780     1.3960 o          1 X77      -0.598100
@<TRIPOS>BOND
     1     1    25 1   
     2     1    28 1   
     3     1    33 2   
     4     2     3 1   
     5     2    10 1   
     6     2    28 1   
     7     2    34 1   
     8     3    29 1   
     9     3    67 2   
    10     4     5 1   
    11     4     9 1   
    12     4    29 1   
    13     4    35 1   
    14     5     6 1   
    15     5    36 1   
    16     5    37 1   
    17     6     7 1   
    18     6    38 1   
    19     6    39 1   
    20     7     8 1   
    21     7    40 1   
    22     7    41 1   
    23     8     9 1   
    24     8    42 1   
    25     8    43 1   
    26     9    44 1   
    27     9    45 1   
    28    10    11 ar  
    29    10    14 ar  
    30    11    12 ar  
    31    11    46 1   
    32    12    13 ar  
    33    12    47 1   
    34    13    30 ar  
    35    13    48 1   
    36    14    30 ar  
    37    14    49 1   
    38    15    16 ar  
    39    15    24 ar  
    40    15    28 1   
    41    16    17 ar  
    42    16    50 1   
    43    17    18 ar  
    44    17    51 1   
    45    18    19 1   
    46    18    23 ar  
    47    19    20 1   
    48    19    21 1   
    49    19    22 1   
    50    20    52 1   
    51    20    53 1   
    52    20    54 1   
    53    21    55 1   
    54    21    56 1   
    55    21    57 1   
    56    22    58 1   
    57    22    59 1   
    58    22    60 1   
    59    23    24 ar  
    60    23    61 1   
    61    24    62 1   
    62    25    26 2   
    63    25    32 1   
    64    26    31 1   
    65    26    63 1   
    66    27    31 1   
    67    27    32 2   
    68    27    64 1   
    69    29    65 1   
    70    31    66 1   
@<TRIPOS>SUBSTRUCTURE
     1 X77         1 TEMP              0 ****  ****    0 ROOT
