@<TRIPOS>MOLECULE
X77
   67    70     1     0     0
SMALL
No Charge or Current Charge


@<TRIPOS>ATOM
      1 C02          0.0010    -2.3470    -0.6560 c          1 X77       0.555600
      2 C04         -0.5260     0.1690    -0.7940 c3         1 X77       0.101000
      3 C05         -1.5460     0.2680     0.3770 c          1 X77       0.598100
      4 C07         -3.7440     1.3160     1.0640 c6         1 X77       0.110700
      5 C08         -4.4380     2.6630     0.7370 c6         1 X77      -0.090400
      6 C09         -5.6450     2.9190     1.6740 c6         1 X77      -0.071900
      7 C10         -6.6640     1.7550     1.6020 c6         1 X77      -0.076400
      8 C11         -5.9840     0.3980     1.9060 c6         1 X77      -0.071900
      9 C12         -4.7730     0.1580     0.9700 c6         1 X77      -0.090400
     10 C14          0.1490     1.5200    -1.1000 ca         1 X77      -0.154300
     11 C15          0.6800     1.7550    -2.3820 ca         1 X77      -0.058000
     12 C16          1.2960     2.9900    -2.6370 ca         1 X77      -0.171000
     13 C17          1.3620     3.9490    -1.6130 ca         1 X77       0.344900
     14 C19          0.2650     2.5450    -0.1320 ca         1 X77       0.367900
     15 C20          1.8090    -0.6380    -0.3390 ca         1 X77      -0.052000
     16 C21          2.1120     0.0620     0.8450 ca         1 X77      -0.096000
     17 C22          3.4440     0.2760     1.2330 ca         1 X77      -0.108500
     18 C23          4.5210    -0.2510     0.4840 ca         1 X77      -0.058300
     19 C24          5.9790     0.0150     0.9430 c3         1 X77       0.000300
     20 C25          6.1880    -0.5870     2.3590 c3         1 X77      -0.082433
     21 C26          7.0410    -0.6090    -0.0060 c3         1 X77      -0.082433
     22 C27          6.2290     1.5470     0.9930 c3         1 X77      -0.082433
     23 C28          4.2040    -1.0370    -0.6510 ca         1 X77      -0.108500
     24 C29          2.8690    -1.2490    -1.0340 ca         1 X77      -0.096000
     25 C30         -1.4290    -2.7230    -1.0320 cc         1 X77       0.182500
     26 C31         -1.8310    -4.0370    -0.9690 cd         1 X77      -0.146000
     27 C33         -3.5150    -2.7470    -1.6650 cd         1 X77       0.388400
     28 N03          0.4380    -0.9740    -0.6550 n          1 X77      -0.214400
     29 N06         -2.6320     1.0860     0.1370 ns         1 X77      -0.490900
     30 N18          0.8550     3.7380    -0.3780 nb         1 X77      -0.666000
     31 N32         -3.1580    -4.0450    -1.3680 na         1 X77      -0.298500
     32 N34         -2.4810    -1.9420    -1.4730 nc         1 X77      -0.677000
     33 O01          0.7970    -3.2320    -0.3410 o          1 X77      -0.594100
     34 H041        -1.1180    -0.0160    -1.6940 h1         1 X77       0.092700
     35 H071        -3.3460     1.3610     2.0890 h1         1 X77       0.077700
     36 H081        -3.7170     3.4860     0.8350 hc         1 X77       0.045450
     37 H082        -4.7770     2.6670    -0.3080 hc         1 X77       0.045450
     38 H091        -5.2930     3.0400     2.7080 hc         1 X77       0.041700
     39 H092        -6.1370     3.8620     1.3990 hc         1 X77       0.041700
     40 H101        -7.4830     1.9310     2.3130 hc         1 X77       0.038700
     41 H102        -7.1200     1.7240     0.6020 hc         1 X77       0.038700
     42 H112        -5.6510     0.3770     2.9530 hc         1 X77       0.041700
     43 H111        -6.7110    -0.4170     1.7920 hc         1 X77       0.041700
     44 H121        -5.1230     0.0520    -0.0670 hc         1 X77       0.045450
     45 H122        -4.2910    -0.7940     1.2320 hc         1 X77       0.045450
     46 H151         0.6240     0.9960    -3.1600 ha         1 X77       0.120000
     47 H161         1.7200     3.2080    -3.6130 ha         1 X77       0.124000
     48 H171         1.8340     4.9150    -1.7870 h4         1 X77       0.019100
     49 H191        -0.1210     2.4140     0.8790 h4         1 X77       0.033100
     50 H211         1.3130     0.4440     1.4740 ha         1 X77       0.127000
     51 H221         3.6330     0.8490     2.1370 ha         1 X77       0.111500
     52 H251         5.9820    -1.6640     2.3540 hc         1 X77       0.035144
     53 H252         7.2210    -0.4410     2.6990 hc         1 X77       0.035144
     54 H253         5.5280    -0.1200     3.0990 hc         1 X77       0.035144
     55 H261         6.9440    -0.2120    -1.0240 hc         1 X77       0.035144
     56 H263         8.0570    -0.3830     0.3410 hc         1 X77       0.035144
     57 H262         6.9440    -1.7010    -0.0460 hc         1 X77       0.035144
     58 H272         5.5750     2.0420     1.7200 hc         1 X77       0.035144
     59 H273         7.2650     1.7670     1.2800 hc         1 X77       0.035144
     60 H271         6.0470     2.0010     0.0110 hc         1 X77       0.035144
     61 H281         4.9780    -1.5050    -1.2510 ha         1 X77       0.111500
     62 H291         2.6580    -1.8720    -1.9000 ha         1 X77       0.127000
     63 H311        -1.2830    -4.9270    -0.6750 h4         1 X77       0.180000
     64 H331        -4.5070    -2.4740    -2.0060 h5         1 X77       0.058100
     65 H061        -2.6840     1.5130    -0.7800 hn         1 X77       0.308500
     66 H1          -3.7720    -4.8480    -1.4370 hn         1 X77       0.358000
     67 O13         -1.3920    -0.2940     1.4550 o          1 X77      -0.598100
@<TRIPOS>BOND
     1     1    25 1   
     2     1    28 1   
     3     1    33 2   
     4     2     3 1   
     5     2    10 1   
     6     2    28 1   
     7     2    34 1   
     8     3    29 1   
     9     3    67 2   
    10     4     5 1   
    11     4     9 1   
    12     4    29 1   
    13     4    35 1   
    14     5     6 1   
    15     5    36 1   
    16     5    37 1   
    17     6     7 1   
    18     6    38 1   
    19     6    39 1   
    20     7     8 1   
    21     7    40 1   
    22     7    41 1   
    23     8     9 1   
    24     8    42 1   
    25     8    43 1   
    26     9    44 1   
    27     9    45 1   
    28    10    11 ar  
    29    10    14 ar  
    30    11    12 ar  
    31    11    46 1   
    32    12    13 ar  
    33    12    47 1   
    34    13    30 ar  
    35    13    48 1   
    36    14    30 ar  
    37    14    49 1   
    38    15    16 ar  
    39    15    24 ar  
    40    15    28 1   
    41    16    17 ar  
    42    16    50 1   
    43    17    18 ar  
    44    17    51 1   
    45    18    19 1   
    46    18    23 ar  
    47    19    20 1   
    48    19    21 1   
    49    19    22 1   
    50    20    52 1   
    51    20    53 1   
    52    20    54 1   
    53    21    55 1   
    54    21    56 1   
    55    21    57 1   
    56    22    58 1   
    57    22    59 1   
    58    22    60 1   
    59    23    24 ar  
    60    23    61 1   
    61    24    62 1   
    62    25    26 2   
    63    25    32 1   
    64    26    31 1   
    65    26    63 1   
    66    27    31 1   
    67    27    32 2   
    68    27    64 1   
    69    29    65 1   
    70    31    66 1   
@<TRIPOS>SUBSTRUCTURE
     1 X77         1 TEMP              0 ****  ****    0 ROOT
