@<TRIPOS>MOLECULE
X78
   46    49     1     0     0
SMALL
No Charge or Current Charge


@<TRIPOS>ATOM
      1 C10        -19.8300   -11.5230     8.1460 ca         1 X78      -0.077000
      2 C18        -22.2290   -12.1000    12.0420 ca         1 X78      -0.062200
      3 C11        -20.9760   -12.2110     8.5930 ca         1 X78       0.103200
      4 C12        -21.5590   -11.9210     9.9000 cc         1 X78      -0.160400
      5 C13        -22.2750   -10.7590    10.2160 cd         1 X78      -0.053300
      6 C14        -22.5980    -9.5970     9.3150 c          1 X78       0.724200
      7 C23        -21.8340   -13.9480    13.5440 ca         1 X78      -0.117000
      8 C24        -21.1290   -14.6200    12.5190 ca         1 X78      -0.157000
      9 C22        -24.4220   -12.7320    14.8640 c3         1 X78      -0.083100
     10 C21        -22.2460   -11.6450    15.6480 c3         1 X78      -0.083100
     11 C26        -21.5480   -12.7600    11.0570 ca         1 X78      -0.083800
     12 C27        -21.5040   -13.2240     7.7740 ca         1 X78      -0.210000
     13 C01        -25.0240   -17.7360     5.6210 c3         1 X78      -0.175100
     14 C02        -24.4560   -16.6410     6.5170 c          1 X78       0.601100
     15 C05        -22.6030   -14.9920     6.5550 cc         1 X78       0.403800
     16 C07        -20.9470   -13.5440     6.5520 ca         1 X78       0.108400
     17 C08        -19.8110   -12.8540     6.0980 ca         1 X78      -0.097000
     18 C09        -19.2500   -11.8400     6.9000 ca         1 X78      -0.108000
     19 C19        -22.4000   -12.6670    13.3230 ca         1 X78      -0.089300
     20 C25        -20.9780   -14.0230    11.2530 ca         1 X78      -0.069000
     21 N04        -23.3480   -16.0100     6.0060 ns         1 X78      -0.407400
     22 N06        -21.5640   -14.5600     5.8330 nd         1 X78      -0.620100
     23 N17        -22.6830   -10.8710    11.5730 na         1 X78      -0.197700
     24 O03        -24.9590   -16.3660     7.5950 o          1 X78      -0.556100
     25 O15        -23.2390    -8.6730     9.8010 o          1 X78      -0.701500
     26 O16        -22.2370    -9.5940     8.1470 o          1 X78      -0.701500
     27 S28        -22.9110   -14.2130     8.1350 ss         1 X78       0.150800
     28 H101       -19.3920   -10.7460     8.7660 ha         1 X78       0.125000
     29 H231       -21.9380   -14.4280    14.5140 ha         1 X78       0.090000
     30 H241       -20.7010   -15.6010    12.7090 ha         1 X78       0.091000
     31 H223       -24.9990   -12.1690    15.6070 hc         1 X78       0.030033
     32 H221       -25.0700   -12.9140    13.9970 hc         1 X78       0.030033
     33 H222       -24.1550   -13.7010    15.3020 hc         1 X78       0.030033
     34 H211       -22.7830   -11.0600    16.4040 hc         1 X78       0.030033
     35 H212       -21.8940   -12.5700    16.1180 hc         1 X78       0.030033
     36 H213       -21.3710   -11.0660    15.3290 hc         1 X78       0.030033
     37 H201       -23.5160   -10.9730    14.0750 hc         1 X78       0.046700
     38 H012       -25.9060   -18.2200     6.0550 hc         1 X78       0.061367
     39 H013       -25.2410   -17.3130     4.6330 hc         1 X78       0.061367
     40 H011       -24.2340   -18.4610     5.3960 hc         1 X78       0.061367
     41 H081       -19.3680   -13.1020     5.1370 ha         1 X78       0.109000
     42 H091       -18.3690   -11.3030     6.5590 ha         1 X78       0.099000
     43 H251       -20.4380   -14.5270    10.4540 ha         1 X78       0.109000
     44 H041       -23.0460   -16.3440     5.1030 hn         1 X78       0.325500
     45 H171       -23.2220   -10.1810    12.0850 hn         1 X78       0.367000
     46 C20        -23.1630   -11.9440    14.4410 c3         1 X78      -0.008400
@<TRIPOS>BOND
     1     1     3 ar  
     2     1    18 ar  
     3     1    28 1   
     4     2    11 ar  
     5     2    19 ar  
     6     2    23 1   
     7     3     4 1   
     8     3    12 ar  
     9     4     5 2   
    10     4    11 1   
    11     5     6 1   
    12     5    23 1   
    13     6    25 1   
    14     6    26 1   
    15     7     8 ar  
    16     7    19 ar  
    17     7    29 1   
    18     8    20 ar  
    19     8    30 1   
    20     9    31 1   
    21     9    32 1   
    22     9    33 1   
    23     9    46 1   
    24    10    34 1   
    25    10    35 1   
    26    10    36 1   
    27    10    46 1   
    28    11    20 ar  
    29    12    16 ar  
    30    12    27 1   
    31    13    14 1   
    32    13    38 1   
    33    13    39 1   
    34    13    40 1   
    35    14    21 1   
    36    14    24 2   
    37    15    21 1   
    38    15    22 2   
    39    15    27 1   
    40    16    17 ar  
    41    16    22 1   
    42    17    18 ar  
    43    17    41 1   
    44    18    42 1   
    45    19    46 1   
    46    20    43 1   
    47    21    44 1   
    48    23    45 1   
    49    37    46 1   
@<TRIPOS>SUBSTRUCTURE
     1 X78         1 TEMP              0 ****  ****    0 ROOT
