@<TRIPOS>MOLECULE
X78
   46    49     1     0     0
SMALL
abcg2


@<TRIPOS>ATOM
      1 C10        -19.9590   -11.3200     7.9050 ca         1 X78      -0.077000
      2 C18        -22.1020   -12.1030    12.0080 ca         1 X78      -0.062200
      3 C11        -20.9840   -12.0610     8.4820 ca         1 X78       0.103200
      4 C12        -21.5280   -11.7880     9.8160 cc         1 X78      -0.160400
      5 C13        -22.1830   -10.6700    10.2820 cd         1 X78      -0.053300
      6 C14        -22.5980    -9.3780     9.6180 c          1 X78       0.724200
      7 C23        -21.6750   -13.9800    13.3690 ca         1 X78      -0.117000
      8 C24        -21.0070   -14.6000    12.2960 ca         1 X78      -0.157000
      9 C22        -24.5180   -12.1300    14.0880 c3         1 X78      -0.083100
     10 C21        -22.6960   -12.5770    15.7550 c3         1 X78      -0.083100
     11 C26        -21.4590   -12.7110    10.9110 ca         1 X78      -0.083800
     12 C27        -21.4570   -13.1440     7.7420 ca         1 X78      -0.210000
     13 C01        -24.9290   -17.8370     6.3310 c3         1 X78      -0.175100
     14 C02        -24.2490   -16.6770     6.9950 c          1 X78       0.601100
     15 C05        -22.4800   -15.0420     6.6470 cc         1 X78       0.403800
     16 C07        -20.9450   -13.4910     6.4850 ca         1 X78       0.108400
     17 C08        -19.9120   -12.7340     5.9350 ca         1 X78      -0.097000
     18 C09        -19.4330   -11.6530     6.6560 ca         1 X78      -0.108000
     19 C19        -22.2410   -12.7220    13.2590 ca         1 X78      -0.089300
     20 C25        -20.8940   -13.9830    11.0690 ca         1 X78      -0.069000
     21 N04        -23.2260   -16.1270     6.2690 ns         1 X78      -0.407400
     22 N06        -21.5460   -14.5760     5.8930 nd         1 X78      -0.620100
     23 N17        -22.5170   -10.8740    11.5910 na         1 X78      -0.197700
     24 O03        -24.5600   -16.2280     8.0790 o          1 X78      -0.556100
     25 O15        -23.0860    -8.5270    10.3890 o          1 X78      -0.701500
     26 O16        -22.4240    -9.2960     8.3920 o          1 X78      -0.701500
     27 S28        -22.7470   -14.2300     8.1720 ss         1 X78       0.150800
     28 H101       -19.5560   -10.4760     8.4480 ha         1 X78       0.125000
     29 H231       -21.7380   -14.5150    14.3070 ha         1 X78       0.090000
     30 H241       -20.5770   -15.5820    12.4470 ha         1 X78       0.091000
     31 H223       -25.0830   -11.5910    14.8500 hc         1 X78       0.030033
     32 H221       -24.7810   -11.7070    13.1190 hc         1 X78       0.030033
     33 H222       -24.8470   -13.1700    14.0980 hc         1 X78       0.030033
     34 H211       -23.2080   -11.9790    16.5100 hc         1 X78       0.030033
     35 H212       -23.0320   -13.6080    15.8790 hc         1 X78       0.030033
     36 H213       -21.6280   -12.5430    15.9700 hc         1 X78       0.030033
     37 H201       -22.7350   -10.9800    14.3560 hc         1 X78       0.046700
     38 H012       -25.6400   -18.2950     7.0120 hc         1 X78       0.061367
     39 H013       -25.4630   -17.4980     5.4410 hc         1 X78       0.061367
     40 H011       -24.2050   -18.5860     6.0110 hc         1 X78       0.061367
     41 H081       -19.5030   -12.9900     4.9670 ha         1 X78       0.109000
     42 H091       -18.6310   -11.0540     6.2440 ha         1 X78       0.099000
     43 H251       -20.3750   -14.4680    10.2520 ha         1 X78       0.109000
     44 H041       -22.9860   -16.5240     5.3690 hn         1 X78       0.325500
     45 H171       -23.0120   -10.1810    12.1300 hn         1 X78       0.367000
     46 C20        -23.0130   -12.0410    14.3650 c3         1 X78      -0.008400
@<TRIPOS>BOND
     1     1     3 ar  
     2     1    18 ar  
     3     1    28 1   
     4     2    11 ar  
     5     2    19 ar  
     6     2    23 1   
     7     3     4 1   
     8     3    12 ar  
     9     4     5 2   
    10     4    11 1   
    11     5     6 1   
    12     5    23 1   
    13     6    25 1   
    14     6    26 1   
    15     7     8 ar  
    16     7    19 ar  
    17     7    29 1   
    18     8    20 ar  
    19     8    30 1   
    20     9    31 1   
    21     9    32 1   
    22     9    33 1   
    23     9    46 1   
    24    10    34 1   
    25    10    35 1   
    26    10    36 1   
    27    10    46 1   
    28    11    20 ar  
    29    12    16 ar  
    30    12    27 1   
    31    13    14 1   
    32    13    38 1   
    33    13    39 1   
    34    13    40 1   
    35    14    21 1   
    36    14    24 2   
    37    15    21 1   
    38    15    22 2   
    39    15    27 1   
    40    16    17 ar  
    41    16    22 1   
    42    17    18 ar  
    43    17    41 1   
    44    18    42 1   
    45    19    46 1   
    46    20    43 1   
    47    21    44 1   
    48    23    45 1   
    49    37    46 1   
@<TRIPOS>SUBSTRUCTURE
     1 X78         1 TEMP              0 ****  ****    0 ROOT
