@<TRIPOS>MOLECULE
X7C
   23    25     1     0     0
SMALL
No Charge or Current Charge


@<TRIPOS>ATOM
      1 C2          49.4240    35.7820   -18.2340 ca         1 X7C       0.232500
      2 C4          48.0730    36.4320   -16.3170 ca         1 X7C      -0.045000
      3 C5          47.1550    35.4170   -16.6320 ca         1 X7C      -0.175000
      4 C6          47.3740    34.5880   -17.7440 ca         1 X7C       0.232500
      5 C8          48.5110    34.7560   -18.5650 cp         1 X7C      -0.238500
      6 C9          48.7430    33.8840   -19.7450 cp         1 X7C       0.434500
      7 C11         49.2570    31.7420   -20.4790 ca         1 X7C       0.494000
      8 C13         49.7260    29.8510   -21.5040 cc         1 X7C       0.397100
      9 C15         49.2080    32.1630   -21.7990 ca         1 X7C      -0.238000
     10 C16         48.9130    33.4910   -22.1380 ca         1 X7C      -0.025000
     11 C17         48.6720    34.3790   -21.0790 ca         1 X7C       0.084000
     12 F1          50.5330    35.9690   -18.9830 f          1 X7C      -0.163000
     13 C3          49.2100    36.6120   -17.1230 ca         1 X7C      -0.175000
     14 F7          46.4600    33.6340   -18.0310 f          1 X7C      -0.163000
     15 N10         49.0260    32.5890   -19.4650 nb         1 X7C      -0.588000
     16 N12         49.5560    30.4030   -20.2940 nd         1 X7C      -0.572700
     17 S14         49.5420    30.8750   -22.9400 ss         1 X7C       0.059800
     18 Cl18        48.2660    36.0600   -21.4440 cl         1 X7C      -0.165000
     19 H1          47.9050    37.0750   -15.4550 ha         1 X7C       0.123000
     20 H2          46.2700    35.2720   -16.0170 ha         1 X7C       0.140000
     21 H3          49.9700    28.8080   -21.6570 h5         1 X7C       0.065800
     22 H4          48.8670    33.8220   -23.1740 ha         1 X7C       0.146000
     23 H5          49.9280    37.3930   -16.8860 ha         1 X7C       0.140000
@<TRIPOS>BOND
     1     1     5 ar  
     2     1    12 1   
     3     1    13 ar  
     4     2     3 ar  
     5     2    13 ar  
     6     2    19 1   
     7     3     4 ar  
     8     3    20 1   
     9     4     5 ar  
    10     4    14 1   
    11     5     6 1   
    12     6    11 ar  
    13     6    15 ar  
    14     7     9 ar  
    15     7    15 ar  
    16     7    16 1   
    17     8    16 2   
    18     8    17 1   
    19     8    21 1   
    20     9    10 ar  
    21     9    17 1   
    22    10    11 ar  
    23    10    22 1   
    24    11    18 1   
    25    13    23 1   
@<TRIPOS>SUBSTRUCTURE
     1 X7C         1 TEMP              0 ****  ****    0 ROOT
