@<TRIPOS>MOLECULE
X7C
   23    25     1     0     0
SMALL
abcg2


@<TRIPOS>ATOM
      1 C2          49.4350    35.7180   -18.2010 ca         1 X7C       0.232500
      2 C4          48.0960    36.3930   -16.3590 ca         1 X7C      -0.045000
      3 C5          47.1390    35.4480   -16.7000 ca         1 X7C      -0.175000
      4 C6          47.3680    34.6520   -17.8040 ca         1 X7C       0.232500
      5 C8          48.5110    34.7570   -18.5810 cp         1 X7C      -0.238500
      6 C9          48.7450    33.8650   -19.7400 cp         1 X7C       0.434500
      7 C11         49.2860    31.7960   -20.4940 ca         1 X7C       0.494000
      8 C13         49.7860    29.9020   -21.4460 cc         1 X7C       0.397100
      9 C15         49.1750    32.2000   -21.8350 ca         1 X7C      -0.238000
     10 C16         48.8270    33.5060   -22.1330 ca         1 X7C      -0.025000
     11 C17         48.6120    34.3410   -21.0550 ca         1 X7C       0.084000
     12 F1          50.5440    35.8360   -18.9380 f          1 X7C      -0.163000
     13 C3          49.2570    36.5390   -17.1060 ca         1 X7C      -0.175000
     14 F7          46.4540    33.7430   -18.1570 f          1 X7C      -0.163000
     15 N10         49.0730    32.6160   -19.4750 nb         1 X7C      -0.588000
     16 N12         49.6340    30.4830   -20.3110 nd         1 X7C      -0.572700
     17 S14         49.5250    30.8670   -22.8680 ss         1 X7C       0.059800
     18 CL18        48.1640    35.9800   -21.3320 cl         1 X7C      -0.165000
     19 H1          47.9360    37.0260   -15.4980 ha         1 X7C       0.123000
     20 H2          46.2310    35.3350   -16.1220 ha         1 X7C       0.140000
     21 H3          50.0600    28.8610   -21.5550 h5         1 X7C       0.065800
     22 H4          48.7240    33.8580   -23.1510 ha         1 X7C       0.146000
     23 H5          50.0070    37.2730   -16.8450 ha         1 X7C       0.140000
@<TRIPOS>BOND
     1     1     5 ar  
     2     1    12 1   
     3     1    13 ar  
     4     2     3 ar  
     5     2    13 ar  
     6     2    19 1   
     7     3     4 ar  
     8     3    20 1   
     9     4     5 ar  
    10     4    14 1   
    11     5     6 1   
    12     6    11 ar  
    13     6    15 ar  
    14     7     9 ar  
    15     7    15 ar  
    16     7    16 1   
    17     8    16 2   
    18     8    17 1   
    19     8    21 1   
    20     9    10 ar  
    21     9    17 1   
    22    10    11 ar  
    23    10    22 1   
    24    11    18 1   
    25    13    23 1   
@<TRIPOS>SUBSTRUCTURE
     1 X7C         1 TEMP              0 ****  ****    0 ROOT
