@<TRIPOS>MOLECULE
X7D
   83    86     1     0     0
SMALL
No Charge or Current Charge


@<TRIPOS>ATOM
      1 C01        116.7290    44.4690    83.4050 c3         1 X7D      -0.108767
      2 C02        117.7380    45.1830    84.3420 c3         1 X7D       0.225000
      3 C03        119.1340    45.3780    83.6950 c3         1 X7D      -0.108767
      4 C04        117.1690    46.5490    84.7860 c3         1 X7D      -0.108767
      5 C06        118.3470    43.1530    85.6060 c          1 X7D       0.652100
      6 C09        118.7120    41.3880    87.3450 c3         1 X7D       0.147700
      7 C10        117.5890    40.3620    87.0490 c3         1 X7D       0.027600
      8 C12        115.0660    39.1410    87.7980 c3         1 X7D      -0.008700
      9 C13        114.7980    38.7750    86.3110 c3         1 X7D      -0.026100
     10 C14        113.9660    37.5050    86.1580 ca         1 X7D      -0.088300
     11 C15        112.6490    37.4520    86.6560 ca         1 X7D      -0.102500
     12 C16        111.8890    36.2760    86.5330 ca         1 X7D      -0.106500
     13 C17        112.4410    35.1440    85.9100 ca         1 X7D      -0.106000
     14 C18        113.7500    35.1920    85.4050 ca         1 X7D      -0.106500
     15 C19        114.5090    36.3680    85.5250 ca         1 X7D      -0.102500
     16 C20        115.7380    38.0150    88.6300 c          1 X7D       0.615100
     17 C23        117.3570    36.0780    88.5440 c3         1 X7D       0.094000
     18 C24        116.8570    34.7350    87.9800 c3         1 X7D      -0.094400
     19 C25        117.5700    33.5120    88.6010 c3         1 X7D      -0.024100
     20 C26        119.0900    33.5670    88.4700 ca         1 X7D      -0.131300
     21 C27        119.7060    33.6360    87.2060 ca         1 X7D      -0.073000
     22 C28        121.1070    33.6990    87.1500 ca         1 X7D      -0.158000
     23 C29        121.8440    33.6840    88.3460 ca         1 X7D       0.332900
     24 C31        119.9120    33.5560    89.6170 ca         1 X7D       0.335900
     25 C32        119.1640    41.4090    88.8290 c3         1 X7D      -0.042100
     26 C33        119.5370    40.0270    89.3810 ca         1 X7D      -0.084300
     27 C34        120.7380    39.3500    89.0290 ca         1 X7D      -0.028000
     28 C35        121.7000    39.9270    88.1650 ca         1 X7D      -0.108000
     29 C36        122.8700    39.2280    87.8260 ca         1 X7D      -0.105000
     30 C37        123.1030    37.9470    88.3470 ca         1 X7D      -0.115000
     31 C38        122.1670    37.3650    89.2140 ca         1 X7D      -0.095000
     32 C39        120.9910    38.0590    89.5580 ca         1 X7D      -0.041000
     33 C40        120.0730    37.4580    90.4360 ca         1 X7D      -0.099000
     34 C41        118.8980    38.1330    90.7930 ca         1 X7D      -0.111000
     35 C42        118.6320    39.4040    90.2660 ca         1 X7D      -0.093000
     36 N08        118.3330    42.7310    86.9020 ns         1 X7D      -0.505900
     37 N22        116.6330    37.2060    87.9580 ns         1 X7D      -0.501900
     38 N30        121.2640    33.6120    89.5660 nb         1 X7D      -0.668000
     39 O05        117.8720    44.4350    85.5730 os         1 X7D      -0.476100
     40 O07        118.7260    42.4780    84.6630 o          1 X7D      -0.556000
     41 O21        115.4740    37.8420    89.8130 o          1 X7D      -0.595100
     42 S11        115.9940    40.7630    87.9220 ss         1 X7D      -0.423000
     43 H1         117.1520    43.5590    82.9650 hc         1 X7D       0.049589
     44 H2         115.8170    44.1990    83.9500 hc         1 X7D       0.049589
     45 H3         116.4460    45.1280    82.5760 hc         1 X7D       0.049589
     46 H4         119.5130    44.4520    83.2490 hc         1 X7D       0.049589
     47 H5         119.0830    46.1260    82.8950 hc         1 X7D       0.049589
     48 H6         119.8620    45.7280    84.4380 hc         1 X7D       0.049589
     49 H7         117.8510    47.0470    85.4840 hc         1 X7D       0.049589
     50 H8         117.0230    47.2100    83.9230 hc         1 X7D       0.049589
     51 H9         116.2000    46.4230    85.2850 hc         1 X7D       0.049589
     52 H10        119.5770    41.0800    86.7430 h1         1 X7D       0.083700
     53 H11        117.9390    39.3690    87.3520 h1         1 X7D       0.076700
     54 H12        117.4050    40.3360    85.9680 h1         1 X7D       0.076700
     55 H13        114.0920    39.3000    88.2770 h1         1 X7D       0.113700
     56 H14        115.7440    38.6800    85.7670 hc         1 X7D       0.059700
     57 H15        114.2680    39.6110    85.8380 hc         1 X7D       0.059700
     58 H16        112.2100    38.3230    87.1390 ha         1 X7D       0.109000
     59 H17        110.8740    36.2420    86.9210 ha         1 X7D       0.114000
     60 H18        111.8530    34.2330    85.8160 ha         1 X7D       0.114000
     61 H19        114.1780    34.3170    84.9200 ha         1 X7D       0.114000
     62 H20        115.5220    36.3900    85.1290 ha         1 X7D       0.109000
     63 H21        118.4250    36.2020    88.3200 h1         1 X7D       0.063200
     64 H22        117.2410    36.0820    89.6350 h1         1 X7D       0.063200
     65 H23        115.7780    34.6470    88.1620 hc         1 X7D       0.046700
     66 H24        116.9940    34.7250    86.8920 hc         1 X7D       0.046700
     67 H25        117.2810    33.4380    89.6580 hc         1 X7D       0.053200
     68 H26        117.1910    32.6010    88.1200 hc         1 X7D       0.053200
     69 H27        119.1160    33.6430    86.2920 ha         1 X7D       0.117000
     70 H28        121.6230    33.7560    86.1960 ha         1 X7D       0.124000
     71 H29        122.9320    33.7320    88.3280 h4         1 X7D       0.018100
     72 H30        119.4740    33.5050    90.6140 h4         1 X7D       0.017100
     73 H31        120.0090    42.1000    88.9390 hc         1 X7D       0.061200
     74 H32        118.3610    41.8480    89.4330 hc         1 X7D       0.061200
     75 H33        121.5640    40.9210    87.7510 ha         1 X7D       0.113000
     76 H34        123.6000    39.6830    87.1590 ha         1 X7D       0.112000
     77 H35        124.0110    37.4080    88.0840 ha         1 X7D       0.111000
     78 H36        122.3590    36.3760    89.6230 ha         1 X7D       0.120000
     79 H37        120.2690    36.4690    90.8440 ha         1 X7D       0.124000
     80 H38        118.1880    37.6670    91.4730 ha         1 X7D       0.121000
     81 H39        117.7070    39.9050    90.5430 ha         1 X7D       0.131000
     82 H40        117.9650    43.3880    87.5760 hn         1 X7D       0.329500
     83 H41        116.7730    37.4020    86.9760 hn         1 X7D       0.310500
@<TRIPOS>BOND
     1     1     2 1   
     2     1    43 1   
     3     1    44 1   
     4     1    45 1   
     5     2     3 1   
     6     2     4 1   
     7     2    39 1   
     8     3    46 1   
     9     3    47 1   
    10     3    48 1   
    11     4    49 1   
    12     4    50 1   
    13     4    51 1   
    14     5    36 1   
    15     5    39 1   
    16     5    40 2   
    17     6     7 1   
    18     6    25 1   
    19     6    36 1   
    20     6    52 1   
    21     7    42 1   
    22     7    53 1   
    23     7    54 1   
    24     8     9 1   
    25     8    16 1   
    26     8    42 1   
    27     8    55 1   
    28     9    10 1   
    29     9    56 1   
    30     9    57 1   
    31    10    11 ar  
    32    10    15 ar  
    33    11    12 ar  
    34    11    58 1   
    35    12    13 ar  
    36    12    59 1   
    37    13    14 ar  
    38    13    60 1   
    39    14    15 ar  
    40    14    61 1   
    41    15    62 1   
    42    16    37 1   
    43    16    41 2   
    44    17    18 1   
    45    17    37 1   
    46    17    63 1   
    47    17    64 1   
    48    18    19 1   
    49    18    65 1   
    50    18    66 1   
    51    19    20 1   
    52    19    67 1   
    53    19    68 1   
    54    20    21 ar  
    55    20    24 ar  
    56    21    22 ar  
    57    21    69 1   
    58    22    23 ar  
    59    22    70 1   
    60    23    38 ar  
    61    23    71 1   
    62    24    38 ar  
    63    24    72 1   
    64    25    26 1   
    65    25    73 1   
    66    25    74 1   
    67    26    27 ar  
    68    26    35 ar  
    69    27    28 ar  
    70    27    32 ar  
    71    28    29 ar  
    72    28    75 1   
    73    29    30 ar  
    74    29    76 1   
    75    30    31 ar  
    76    30    77 1   
    77    31    32 ar  
    78    31    78 1   
    79    32    33 ar  
    80    33    34 ar  
    81    33    79 1   
    82    34    35 ar  
    83    34    80 1   
    84    35    81 1   
    85    36    82 1   
    86    37    83 1   
@<TRIPOS>SUBSTRUCTURE
     1 X7D         1 TEMP              0 ****  ****    0 ROOT
