@<TRIPOS>MOLECULE
X7D
   83    86     1     0     0
SMALL
abcg2


@<TRIPOS>ATOM
      1 C01        116.7050    43.9520    83.4580 c3         1 X7D      -0.108767
      2 C02        117.6770    44.7590    84.3110 c3         1 X7D       0.225000
      3 C03        119.0130    44.9710    83.6100 c3         1 X7D      -0.108767
      4 C04        117.0580    46.1070    84.6630 c3         1 X7D      -0.108767
      5 C06        118.3640    42.9110    85.7560 c          1 X7D       0.652100
      6 C09        118.7620    41.2360    87.4940 c3         1 X7D       0.147700
      7 C10        117.6740    40.2000    87.2100 c3         1 X7D       0.027600
      8 C12        115.0980    39.1580    87.8280 c3         1 X7D      -0.008700
      9 C13        114.7710    38.9150    86.3530 c3         1 X7D      -0.026100
     10 C14        113.8290    37.7550    86.1590 ca         1 X7D      -0.088300
     11 C15        112.5330    37.8100    86.6700 ca         1 X7D      -0.102500
     12 C16        111.6610    36.7420    86.5150 ca         1 X7D      -0.106500
     13 C17        112.0730    35.5970    85.8440 ca         1 X7D      -0.106000
     14 C18        113.3590    35.5330    85.3260 ca         1 X7D      -0.106500
     15 C19        114.2280    36.6050    85.4840 ca         1 X7D      -0.102500
     16 C20        115.6730    37.9800    88.6080 c          1 X7D       0.615100
     17 C23        117.1950    36.0360    88.4890 c3         1 X7D       0.094000
     18 C24        116.9020    34.7750    87.6880 c3         1 X7D      -0.094400
     19 C25        117.6240    33.5510    88.2540 c3         1 X7D      -0.024100
     20 C26        119.1200    33.6890    88.2220 ca         1 X7D      -0.131300
     21 C27        119.8280    33.7070    87.0230 ca         1 X7D      -0.073000
     22 C28        121.2030    33.8720    87.0460 ca         1 X7D      -0.158000
     23 C29        121.8330    34.0130    88.2740 ca         1 X7D       0.332900
     24 C31        119.8610    33.8340    89.3910 ca         1 X7D       0.335900
     25 C32        119.1780    41.2960    88.9710 c3         1 X7D      -0.042100
     26 C33        119.6130    39.9620    89.5100 ca         1 X7D      -0.084300
     27 C34        120.9010    39.4290    89.2090 ca         1 X7D      -0.028000
     28 C35        121.8600    40.1320    88.4370 ca         1 X7D      -0.108000
     29 C36        123.0840    39.5860    88.1590 ca         1 X7D      -0.105000
     30 C37        123.4210    38.3040    88.6370 ca         1 X7D      -0.115000
     31 C38        122.5230    37.6010    89.3910 ca         1 X7D      -0.095000
     32 C39        121.2510    38.1400    89.6970 ca         1 X7D      -0.041000
     33 C40        120.3240    37.4140    90.4800 ca         1 X7D      -0.099000
     34 C41        119.0990    37.9460    90.7640 ca         1 X7D      -0.111000
     35 C42        118.7470    39.2190    90.2740 ca         1 X7D      -0.093000
     36 N08        118.3870    42.5640    87.0620 ns         1 X7D      -0.505900
     37 N22        116.5220    37.1900    87.9350 ns         1 X7D      -0.501900
     38 N30        121.1790    33.9920    89.4280 nb         1 X7D      -0.668000
     39 O05        117.8640    44.1370    85.6110 os         1 X7D      -0.476100
     40 O07        118.7610    42.1940    84.8600 o          1 X7D      -0.556000
     41 O21        115.3790    37.8140    89.7830 o          1 X7D      -0.595100
     42 S11        116.1400    40.6340    88.0830 ss         1 X7D      -0.423000
     43 H1         117.1200    42.9960    83.1460 hc         1 X7D       0.049589
     44 H2         115.7730    43.7690    83.9960 hc         1 X7D       0.049589
     45 H3         116.4600    44.5180    82.5590 hc         1 X7D       0.049589
     46 H4         119.4640    44.0390    83.2790 hc         1 X7D       0.049589
     47 H5         118.8610    45.5970    82.7290 hc         1 X7D       0.049589
     48 H6         119.7170    45.4900    84.2630 hc         1 X7D       0.049589
     49 H7         117.7320    46.7040    85.2780 hc         1 X7D       0.049589
     50 H8         116.8520    46.6670    83.7510 hc         1 X7D       0.049589
     51 H9         116.1150    45.9840    85.1980 hc         1 X7D       0.049589
     52 H10        119.6270    40.9220    86.9040 h1         1 X7D       0.083700
     53 H11        118.0240    39.2220    87.5400 h1         1 X7D       0.076700
     54 H12        117.4930    40.1540    86.1360 h1         1 X7D       0.076700
     55 H13        114.1770    39.4330    88.3470 h1         1 X7D       0.113700
     56 H14        115.6790    38.7690    85.7620 hc         1 X7D       0.059700
     57 H15        114.3180    39.8320    85.9700 hc         1 X7D       0.059700
     58 H16        112.1950    38.7000    87.1880 ha         1 X7D       0.109000
     59 H17        110.6580    36.8040    86.9170 ha         1 X7D       0.114000
     60 H18        111.3920    34.7640    85.7220 ha         1 X7D       0.114000
     61 H19        113.6890    34.6480    84.7970 ha         1 X7D       0.114000
     62 H20        115.2270    36.5450    85.0700 ha         1 X7D       0.109000
     63 H21        118.2700    36.2290    88.5160 h1         1 X7D       0.063200
     64 H22        116.8720    35.9130    89.5210 h1         1 X7D       0.063200
     65 H23        115.8250    34.5900    87.6820 hc         1 X7D       0.046700
     66 H24        117.1960    34.9250    86.6440 hc         1 X7D       0.046700
     67 H25        117.2970    33.3780    89.2830 hc         1 X7D       0.053200
     68 H26        117.3240    32.6700    87.6820 hc         1 X7D       0.053200
     69 H27        119.3080    33.5910    86.0790 ha         1 X7D       0.117000
     70 H28        121.7810    33.8910    86.1320 ha         1 X7D       0.124000
     71 H29        122.9080    34.1460    88.3260 h4         1 X7D       0.018100
     72 H30        119.3510    33.8210    90.3500 h4         1 X7D       0.017100
     73 H31        119.9730    42.0390    89.0720 hc         1 X7D       0.061200
     74 H32        118.3440    41.6650    89.5730 hc         1 X7D       0.061200
     75 H33        121.6320    41.1210    88.0630 ha         1 X7D       0.113000
     76 H34        123.7990    40.1420    87.5670 ha         1 X7D       0.112000
     77 H35        124.3910    37.8820    88.4070 ha         1 X7D       0.111000
     78 H36        122.7690    36.6150    89.7660 ha         1 X7D       0.120000
     79 H37        120.5990    36.4310    90.8390 ha         1 X7D       0.124000
     80 H38        118.3840    37.3880    91.3540 ha         1 X7D       0.121000
     81 H39        117.7600    39.6100    90.4880 ha         1 X7D       0.131000
     82 H40        117.9700    43.1900    87.7340 hn         1 X7D       0.329500
     83 H41        116.7060    37.3870    86.9650 hn         1 X7D       0.310500
@<TRIPOS>BOND
     1     1     2 1   
     2     1    43 1   
     3     1    44 1   
     4     1    45 1   
     5     2     3 1   
     6     2     4 1   
     7     2    39 1   
     8     3    46 1   
     9     3    47 1   
    10     3    48 1   
    11     4    49 1   
    12     4    50 1   
    13     4    51 1   
    14     5    36 1   
    15     5    39 1   
    16     5    40 2   
    17     6     7 1   
    18     6    25 1   
    19     6    36 1   
    20     6    52 1   
    21     7    42 1   
    22     7    53 1   
    23     7    54 1   
    24     8     9 1   
    25     8    16 1   
    26     8    42 1   
    27     8    55 1   
    28     9    10 1   
    29     9    56 1   
    30     9    57 1   
    31    10    11 ar  
    32    10    15 ar  
    33    11    12 ar  
    34    11    58 1   
    35    12    13 ar  
    36    12    59 1   
    37    13    14 ar  
    38    13    60 1   
    39    14    15 ar  
    40    14    61 1   
    41    15    62 1   
    42    16    37 1   
    43    16    41 2   
    44    17    18 1   
    45    17    37 1   
    46    17    63 1   
    47    17    64 1   
    48    18    19 1   
    49    18    65 1   
    50    18    66 1   
    51    19    20 1   
    52    19    67 1   
    53    19    68 1   
    54    20    21 ar  
    55    20    24 ar  
    56    21    22 ar  
    57    21    69 1   
    58    22    23 ar  
    59    22    70 1   
    60    23    38 ar  
    61    23    71 1   
    62    24    38 ar  
    63    24    72 1   
    64    25    26 1   
    65    25    73 1   
    66    25    74 1   
    67    26    27 ar  
    68    26    35 ar  
    69    27    28 ar  
    70    27    32 ar  
    71    28    29 ar  
    72    28    75 1   
    73    29    30 ar  
    74    29    76 1   
    75    30    31 ar  
    76    30    77 1   
    77    31    32 ar  
    78    31    78 1   
    79    32    33 ar  
    80    33    34 ar  
    81    33    79 1   
    82    34    35 ar  
    83    34    80 1   
    84    35    81 1   
    85    36    82 1   
    86    37    83 1   
@<TRIPOS>SUBSTRUCTURE
     1 X7D         1 TEMP              0 ****  ****    0 ROOT
