@<TRIPOS>MOLECULE
X7E
   44    46     1     0     0
SMALL
No Charge or Current Charge


@<TRIPOS>ATOM
      1 CAN         -2.7970    -0.7710    -0.1630 ca         1 X7E      -0.125000
      2 CAW         -3.7760    -0.1920    -0.9870 ca         1 X7E       0.134000
      3 FAG         -4.5250    -0.9830    -1.7890 f          1 X7E      -0.158000
      4 CAV         -3.9730     1.2010    -0.9780 ca         1 X7E       0.134000
      5 FAF         -4.9130     1.7650    -1.7700 f          1 X7E      -0.158000
      6 CAL         -3.1910     2.0130    -0.1430 ca         1 X7E      -0.135000
      7 CAJ         -2.2100     1.4350     0.6840 ca         1 X7E      -0.084000
      8 CAU         -2.0000     0.0340     0.6790 ca         1 X7E      -0.103300
      9 CAQ         -0.9330    -0.6450     1.5550 c3         1 X7E       0.285800
     10 OAC         -0.5310     0.1960     2.6330 oh         1 X7E      -0.650000
     11 CAS          0.3350    -1.0940     0.8210 c2         1 X7E      -0.259400
     12 CAP          1.1820    -2.0550     1.2580 c2         1 X7E       0.083400
     13 CAA          0.9370    -2.8320     2.5570 c3         1 X7E      -0.068900
     14 NAZ          2.3300    -2.3940     0.4770 n          1 X7E      -0.275000
     15 CAB          3.3340    -3.3320     1.0560 c3         1 X7E       0.087300
     16 CAR          2.5600    -1.9390    -0.8150 cs         1 X7E       0.464400
     17 SAE          3.7630    -2.4420    -1.8670 s          1 X7E      -0.641400
     18 NAO          1.6830    -0.9880    -1.2330 ns         1 X7E      -0.426900
     19 CAY          0.6360    -0.3310    -0.4650 c6         1 X7E       0.202200
     20 CAX          1.0550     1.1230    -0.2150 ca         1 X7E      -0.090300
     21 CAM          0.4690     2.1680    -0.9580 ca         1 X7E      -0.194000
     22 CAK          2.0320     1.4300     0.7540 ca         1 X7E      -0.136000
     23 CAH          2.4060     2.7640     0.9890 ca         1 X7E      -0.073000
     24 CAI          1.8080     3.7990     0.2520 ca         1 X7E      -0.133000
     25 CAT          0.8430     3.5010    -0.7220 ca         1 X7E       0.142100
     26 OAD          0.2700     4.5090    -1.4370 oh         1 X7E      -0.529100
     27 HAN         -2.6540    -1.8490    -0.1850 ha         1 X7E       0.138000
     28 HAL         -3.3440     3.0890    -0.1370 ha         1 X7E       0.136000
     29 HAJ         -1.6130     2.0870     1.3180 ha         1 X7E       0.132000
     30 HAQ         -1.4350    -1.5340     1.9610 h1         1 X7E       0.080700
     31 HAC          0.1120     0.8230     2.2430 ho         1 X7E       0.456000
     32 HAY         -0.2540    -0.3360    -1.1090 h1         1 X7E       0.076700
     33 HAA1        -0.0170    -2.6140     3.0420 hc         1 X7E       0.061700
     34 HAA2         0.9470    -3.9140     2.3760 hc         1 X7E       0.061700
     35 HAA3         1.7080    -2.6060     3.3020 hc         1 X7E       0.061700
     36 HAB1         2.9840    -4.3660     0.9400 h1         1 X7E       0.062033
     37 HAB2         4.3110    -3.2310     0.5690 h1         1 X7E       0.062033
     38 HAB3         3.4960    -3.1210     2.1190 h1         1 X7E       0.062033
     39 HAO          1.8390    -0.6460    -2.1720 hn         1 X7E       0.354500
     40 HAM         -0.2820     1.9400    -1.7110 ha         1 X7E       0.116000
     41 HAK          2.5070     0.6340     1.3240 ha         1 X7E       0.123000
     42 HAH          3.1600     2.9950     1.7390 ha         1 X7E       0.122000
     43 HAI          2.0960     4.8320     0.4320 ha         1 X7E       0.134000
     44 HAD         -0.3630     4.1150    -2.0740 ho         1 X7E       0.468000
@<TRIPOS>BOND
     1     1     2 ar  
     2     1     8 ar  
     3     1    27 1   
     4     2     3 1   
     5     2     4 ar  
     6     4     5 1   
     7     4     6 ar  
     8     6     7 ar  
     9     6    28 1   
    10     7     8 ar  
    11     7    29 1   
    12     8     9 1   
    13     9    10 1   
    14     9    11 1   
    15     9    30 1   
    16    10    31 1   
    17    11    12 2   
    18    11    19 1   
    19    12    13 1   
    20    12    14 1   
    21    13    33 1   
    22    13    34 1   
    23    13    35 1   
    24    14    15 1   
    25    14    16 1   
    26    15    36 1   
    27    15    37 1   
    28    15    38 1   
    29    16    17 2   
    30    16    18 1   
    31    18    19 1   
    32    18    39 1   
    33    19    20 1   
    34    19    32 1   
    35    20    21 ar  
    36    20    22 ar  
    37    21    25 ar  
    38    21    40 1   
    39    22    23 ar  
    40    22    41 1   
    41    23    24 ar  
    42    23    42 1   
    43    24    25 ar  
    44    24    43 1   
    45    25    26 1   
    46    26    44 1   
@<TRIPOS>SUBSTRUCTURE
     1 X7E         1 TEMP              0 ****  ****    0 ROOT
