@<TRIPOS>MOLECULE
X7E
   44    46     1     0     0
SMALL
abcg2


@<TRIPOS>ATOM
      1 CAN         -2.7650    -0.9230    -0.0980 ca         1 X7E      -0.125000
      2 CAW         -3.7710    -0.4900    -0.9300 ca         1 X7E       0.134000
      3 FAG         -4.4500    -1.3610    -1.6840 f          1 X7E      -0.158000
      4 CAV         -4.1000     0.8550    -1.0000 ca         1 X7E       0.134000
      5 FAF         -5.0810     1.2440    -1.8210 f          1 X7E      -0.158000
      6 CAL         -3.4220     1.7720    -0.2290 ca         1 X7E      -0.135000
      7 CAJ         -2.4070     1.3390     0.6170 ca         1 X7E      -0.084000
      8 CAU         -2.0680    -0.0040     0.6850 ca         1 X7E      -0.103300
      9 CAQ         -0.9510    -0.5180     1.5740 c3         1 X7E       0.285800
     10 OAC         -0.5740     0.4190     2.5580 oh         1 X7E      -0.650000
     11 CAS          0.2390    -0.9880     0.7640 c2         1 X7E      -0.259400
     12 CAP          1.0740    -1.9490     1.1890 c2         1 X7E       0.083400
     13 CAA          0.8690    -2.7370     2.4470 c3         1 X7E      -0.068900
     14 NAZ          2.2360    -2.2680     0.4540 n          1 X7E      -0.275000
     15 CAB          3.2520    -3.1360     1.0340 c3         1 X7E       0.087300
     16 CAR          2.3620    -1.8830    -0.8440 cs         1 X7E       0.464400
     17 SAE          3.5380    -2.4940    -1.8790 s          1 X7E      -0.641400
     18 NAO          1.4670    -1.0060    -1.2940 ns         1 X7E      -0.426900
     19 CAY          0.5740    -0.2120    -0.4760 c6         1 X7E       0.202200
     20 CAX          1.1430     1.1650    -0.1720 ca         1 X7E      -0.090300
     21 CAM          0.6420     2.2690    -0.8500 ca         1 X7E      -0.194000
     22 CAK          2.1650     1.3310     0.7590 ca         1 X7E      -0.136000
     23 CAH          2.6770     2.6000     0.9940 ca         1 X7E      -0.073000
     24 CAI          2.1810     3.7050     0.3210 ca         1 X7E      -0.133000
     25 CAT          1.1530     3.5410    -0.6050 ca         1 X7E       0.142100
     26 OAD          0.6910     4.6410    -1.2300 oh         1 X7E      -0.529100
     27 HAN         -2.5210    -1.9790    -0.0650 ha         1 X7E       0.138000
     28 HAL         -3.6860     2.8210    -0.2870 ha         1 X7E       0.136000
     29 HAJ         -1.8890     2.0700     1.2210 ha         1 X7E       0.132000
     30 HAQ         -1.3700    -1.3650     2.1210 h1         1 X7E       0.080700
     31 HAC          0.0870     1.0160     2.1890 ho         1 X7E       0.456000
     32 HAY         -0.3300    -0.0690    -1.0730 h1         1 X7E       0.076700
     33 HAA1        -0.1490    -2.6480     2.8120 hc         1 X7E       0.061700
     34 HAA2         1.0660    -3.7970     2.2930 hc         1 X7E       0.061700
     35 HAA3         1.5250    -2.3890     3.2460 hc         1 X7E       0.061700
     36 HAB1         3.0650    -4.1870     0.8150 h1         1 X7E       0.062033
     37 HAB2         4.2230    -2.8680     0.6320 h1         1 X7E       0.062033
     38 HAB3         3.2840    -2.9960     2.1090 h1         1 X7E       0.062033
     39 HAO          1.5650    -0.7390    -2.2610 hn         1 X7E       0.354500
     40 HAM         -0.1600     2.1360    -1.5690 ha         1 X7E       0.116000
     41 HAK          2.5650     0.4840     1.3030 ha         1 X7E       0.123000
     42 HAH          3.4740     2.7310     1.7140 ha         1 X7E       0.122000
     43 HAI          2.5810     4.6930     0.5120 ha         1 X7E       0.134000
     44 HAD         -0.0140     4.4120    -1.8460 ho         1 X7E       0.468000
@<TRIPOS>BOND
     1     1     2 ar  
     2     1     8 ar  
     3     1    27 1   
     4     2     3 1   
     5     2     4 ar  
     6     4     5 1   
     7     4     6 ar  
     8     6     7 ar  
     9     6    28 1   
    10     7     8 ar  
    11     7    29 1   
    12     8     9 1   
    13     9    10 1   
    14     9    11 1   
    15     9    30 1   
    16    10    31 1   
    17    11    12 2   
    18    11    19 1   
    19    12    13 1   
    20    12    14 1   
    21    13    33 1   
    22    13    34 1   
    23    13    35 1   
    24    14    15 1   
    25    14    16 1   
    26    15    36 1   
    27    15    37 1   
    28    15    38 1   
    29    16    17 2   
    30    16    18 1   
    31    18    19 1   
    32    18    39 1   
    33    19    20 1   
    34    19    32 1   
    35    20    21 ar  
    36    20    22 ar  
    37    21    25 ar  
    38    21    40 1   
    39    22    23 ar  
    40    22    41 1   
    41    23    24 ar  
    42    23    42 1   
    43    24    25 ar  
    44    24    43 1   
    45    25    26 1   
    46    26    44 1   
@<TRIPOS>SUBSTRUCTURE
     1 X7E         1 TEMP              0 ****  ****    0 ROOT
