@<TRIPOS>MOLECULE
X7G
   51    55     1     0     0
SMALL
No Charge or Current Charge


@<TRIPOS>ATOM
      1 C4          15.0170    62.9410    13.8090 ca         1 X7G       0.282500
      2 C5          13.7710    63.4070    14.2870 ca         1 X7G      -0.264000
      3 C6          13.7480    64.5180    15.1420 ca         1 X7G       0.159900
      4 N1          14.8810    65.1400    15.5120 nb         1 X7G      -0.253000
      5 N3          16.1420    63.5860    14.1920 nb         1 X7G      -0.284000
      6 NBB         22.5990    64.3450    14.7030 na         1 X7G       0.063600
      7 NAQ         22.6400    62.9570    14.5370 nc         1 X7G      -0.510100
      8 CAH         21.3530    62.5760    14.6240 cd         1 X7G       0.351800
      9 CAX         20.4880    63.7140    14.8450 ca         1 X7G      -0.204900
     10 CAI         19.0990    63.8160    15.0080 ca         1 X7G      -0.067000
     11 CAY         21.3050    64.7950    14.8900 ca         1 X7G      -0.058200
     12 CAG         20.8070    66.0860    15.1070 ca         1 X7G      -0.098000
     13 CAF         19.4100    66.2290    15.2740 ca         1 X7G      -0.118000
     14 CAS         18.5460    65.1050    15.2150 ca         1 X7G       0.274000
     15 C2          16.0210    64.6330    15.0230 ca         1 X7G       0.407900
     16 NBC         15.0320    61.8280    12.9480 na         1 X7G       0.082300
     17 CAJ         15.9730    61.6700    11.9400 cc         1 X7G      -0.103000
     18 NAN         14.1600    60.7740    13.1220 nc         1 X7G      -0.514800
     19 CAT         14.5610    59.9460    12.1740 cd         1 X7G       0.303300
     20 CAA         13.8710    58.6230    11.9790 c3         1 X7G      -0.124400
     21 CAU         15.6600    60.4410    11.4250 cd         1 X7G      -0.203300
     22 CAK         16.3500    59.7330    10.2930 c3         1 X7G       0.245100
     23 NBA         17.3260    58.7540    10.7720 nq         1 X7G      -0.704600
     24 CAM         18.5380    59.1790    11.5380 cy         1 X7G       0.122800
     25 CAL         18.2180    58.0050     9.8350 cy         1 X7G       0.122800
     26 CAZ         19.1180    57.7840    11.1030 cy         1 X7G       0.136300
     27 OAC         20.5290    57.7040    10.8880 oh         1 X7G      -0.654000
     28 H1          12.8410    62.9250    13.9980 ha         1 X7G       0.163000
     29 H2          12.8140    64.9180    15.5330 h4         1 X7G       0.028100
     30 H3          24.6880    64.6040    14.5110 h1         1 X7G       0.054033
     31 H4          23.6920    65.9480    13.8790 h1         1 X7G       0.054033
     32 H5          23.8820    65.7270    15.6450 h1         1 X7G       0.054033
     33 H7          18.4800    62.9250    14.9930 ha         1 X7G       0.148000
     34 H8          21.4660    66.9500    15.1490 ha         1 X7G       0.122000
     35 H9          18.9970    67.2200    15.4420 ha         1 X7G       0.113000
     36 H11         16.7360    62.3990    11.6950 h4         1 X7G       0.171000
     37 H12         13.1380    58.4270    12.7700 hc         1 X7G       0.054367
     38 H13         13.3450    58.5990    11.0190 hc         1 X7G       0.054367
     39 H14         14.5980    57.8030    11.9860 hc         1 X7G       0.054367
     40 H15         16.8590    60.4720     9.6600 h1         1 X7G       0.041700
     41 H16         15.6010    59.2190     9.6750 h1         1 X7G       0.041700
     42 H18         19.0790    60.0360    11.1160 h1         1 X7G       0.058950
     43 H19         18.4050    59.3080    12.6190 h1         1 X7G       0.058950
     44 H20         17.8030    57.0890     9.4000 h1         1 X7G       0.058950
     45 H21         18.6940    58.6150     9.0560 h1         1 X7G       0.058950
     46 H22         18.7790    56.9540    11.7350 h1         1 X7G       0.053700
     47 H23         20.9620    57.7000    11.7710 ho         1 X7G       0.448000
     48 NAO         17.1700    65.3160    15.3970 nu         1 X7G      -0.927900
     49 H6          21.1050    61.5260    14.5280 h4         1 X7G       0.050800
     50 CAB         23.7900    65.2090    14.6830 c3         1 X7G       0.083900
     51 H10         16.9490    66.2080    15.8410 hn         1 X7G       0.513000
@<TRIPOS>BOND
     1     1     2 ar  
     2     1     5 ar  
     3     1    16 1   
     4     2     3 ar  
     5     2    28 1   
     6     3     4 ar  
     7     3    29 1   
     8     4    15 ar  
     9     5    15 ar  
    10     6     7 1   
    11     6    11 1   
    12     6    50 1   
    13     7     8 2   
    14     8     9 1   
    15     8    49 1   
    16     9    10 ar  
    17     9    11 ar  
    18    10    14 ar  
    19    10    33 1   
    20    11    12 ar  
    21    12    13 ar  
    22    12    34 1   
    23    13    14 ar  
    24    13    35 1   
    25    14    48 1   
    26    15    48 1   
    27    16    17 1   
    28    16    18 1   
    29    17    21 2   
    30    17    36 1   
    31    18    19 2   
    32    19    20 1   
    33    19    21 1   
    34    20    37 1   
    35    20    38 1   
    36    20    39 1   
    37    21    22 1   
    38    22    23 1   
    39    22    40 1   
    40    22    41 1   
    41    23    24 1   
    42    23    25 1   
    43    24    26 1   
    44    24    42 1   
    45    24    43 1   
    46    25    26 1   
    47    25    44 1   
    48    25    45 1   
    49    26    27 1   
    50    26    46 1   
    51    27    47 1   
    52    30    50 1   
    53    31    50 1   
    54    32    50 1   
    55    48    51 1   
@<TRIPOS>SUBSTRUCTURE
     1 X7G         1 TEMP              0 ****  ****    0 ROOT
