@<TRIPOS>MOLECULE
X7G
   51    55     1     0     0
SMALL
abcg2


@<TRIPOS>ATOM
      1 C4          15.0850    62.8760    13.9730 ca         1 X7G       0.282500
      2 C5          13.8540    63.1530    14.5580 ca         1 X7G      -0.264000
      3 C6          13.8640    64.1650    15.5070 ca         1 X7G       0.159900
      4 N1          14.9570    64.8370    15.8560 nb         1 X7G      -0.253000
      5 N3          16.2000    63.5270    14.2960 nb         1 X7G      -0.284000
      6 NBB         22.5290    64.9160    14.2080 na         1 X7G       0.063600
      7 NAQ         22.5650    63.8210    13.4110 nc         1 X7G      -0.510100
      8 CAH         21.3310    63.3460    13.3480 cd         1 X7G       0.351800
      9 CAX         20.4410    64.1410    14.1220 ca         1 X7G      -0.204900
     10 CAI         19.0670    64.1060    14.4080 ca         1 X7G      -0.067000
     11 CAY         21.2660    65.1520    14.6630 ca         1 X7G      -0.058200
     12 CAG         20.7440    66.1470    15.4980 ca         1 X7G      -0.098000
     13 CAF         19.3950    66.1020    15.7640 ca         1 X7G      -0.118000
     14 CAS         18.5440    65.0930    15.2280 ca         1 X7G       0.274000
     15 C2          16.0960    64.4800    15.2260 ca         1 X7G       0.407900
     16 NBC         15.2250    61.8860    13.0000 na         1 X7G       0.082300
     17 CAJ         16.3590    61.5510    12.3100 cc         1 X7G      -0.103000
     18 NAN         14.1640    61.1130    12.6230 nc         1 X7G      -0.514800
     19 CAT         14.6360    60.2940    11.6990 cd         1 X7G       0.303300
     20 CAA         13.7670    59.2820    11.0390 c3         1 X7G      -0.124400
     21 CAU         16.0250    60.5330    11.4600 cd         1 X7G      -0.203300
     22 CAK         16.9240    59.8040    10.5160 c3         1 X7G       0.245100
     23 NBA         17.2070    58.4560    10.9890 nq         1 X7G      -0.704600
     24 CAM         18.0690    58.3220    12.1890 cy         1 X7G       0.122800
     25 CAL         18.1680    57.6550    10.1960 cy         1 X7G       0.122800
     26 CAZ         18.7410    57.1090    11.5090 cy         1 X7G       0.136300
     27 OAC         20.1510    57.0150    11.5350 oh         1 X7G      -0.654000
     28 H1          12.9570    62.6190    14.2910 ha         1 X7G       0.163000
     29 H2          12.9450    64.4460    16.0090 h4         1 X7G       0.028100
     30 H3          24.5570    65.2000    13.9890 h1         1 X7G       0.054033
     31 H4          23.6180    66.7040    14.1140 h1         1 X7G       0.054033
     32 H5          23.9110    65.7160    15.5620 h1         1 X7G       0.054033
     33 H7          18.4340    63.3360    14.0040 ha         1 X7G       0.148000
     34 H8          21.3660    66.9240    15.9210 ha         1 X7G       0.122000
     35 H9          18.9560    66.8580    16.4030 ha         1 X7G       0.113000
     36 H11         17.2910    62.0590    12.4760 h4         1 X7G       0.171000
     37 H12         12.7380    59.3780    11.3820 hc         1 X7G       0.054367
     38 H13         13.7890    59.4040     9.9530 hc         1 X7G       0.054367
     39 H14         14.1200    58.2720    11.2560 hc         1 X7G       0.054367
     40 H15         17.8530    60.3800    10.3800 h1         1 X7G       0.041700
     41 H16         16.4480    59.7180     9.5350 h1         1 X7G       0.041700
     42 H18         18.7850    59.1480    12.2890 h1         1 X7G       0.058950
     43 H19         17.5390    58.1750    13.1310 h1         1 X7G       0.058950
     44 H20         17.7220    56.9580     9.4850 h1         1 X7G       0.058950
     45 H21         18.9160    58.2770     9.6870 h1         1 X7G       0.058950
     46 H22         18.2830    56.1630    11.8050 h1         1 X7G       0.053700
     47 H23         20.4160    56.5370    12.3310 ho         1 X7G       0.448000
     48 NAO         17.1970    65.1860    15.6090 nu         1 X7G      -0.927900
     49 H6          21.1170    62.4650    12.7640 h4         1 X7G       0.050800
     50 CAB         23.7220    65.6840    14.4880 c3         1 X7G       0.083900
     51 H10         16.9840    65.8970    16.2930 hn         1 X7G       0.513000
@<TRIPOS>BOND
     1     1     2 ar  
     2     1     5 ar  
     3     1    16 1   
     4     2     3 ar  
     5     2    28 1   
     6     3     4 ar  
     7     3    29 1   
     8     4    15 ar  
     9     5    15 ar  
    10     6     7 1   
    11     6    11 1   
    12     6    50 1   
    13     7     8 2   
    14     8     9 1   
    15     8    49 1   
    16     9    10 ar  
    17     9    11 ar  
    18    10    14 ar  
    19    10    33 1   
    20    11    12 ar  
    21    12    13 ar  
    22    12    34 1   
    23    13    14 ar  
    24    13    35 1   
    25    14    48 1   
    26    15    48 1   
    27    16    17 1   
    28    16    18 1   
    29    17    21 2   
    30    17    36 1   
    31    18    19 2   
    32    19    20 1   
    33    19    21 1   
    34    20    37 1   
    35    20    38 1   
    36    20    39 1   
    37    21    22 1   
    38    22    23 1   
    39    22    40 1   
    40    22    41 1   
    41    23    24 1   
    42    23    25 1   
    43    24    26 1   
    44    24    42 1   
    45    24    43 1   
    46    25    26 1   
    47    25    44 1   
    48    25    45 1   
    49    26    27 1   
    50    26    46 1   
    51    27    47 1   
    52    30    50 1   
    53    31    50 1   
    54    32    50 1   
    55    48    51 1   
@<TRIPOS>SUBSTRUCTURE
     1 X7G         1 TEMP              0 ****  ****    0 ROOT
