@<TRIPOS>MOLECULE
X7I
   58    63     1     0     0
SMALL
abcg2


@<TRIPOS>ATOM
      1 C4           8.0290     5.5920     0.6490 cc         1 X7I       0.312500
      2 C6           7.8760     4.5130    -1.4790 cd         1 X7I       0.000000
      3 C13          4.9870     7.8450     8.8450 c3         1 X7I      -0.024200
      4 C16          1.3630     8.8170     8.6560 ca         1 X7I      -0.042200
      5 C2           9.5720     6.1730    -0.8620 cd         1 X7I       0.542400
      6 C5           7.3690     4.6820    -0.1710 cd         1 X7I       0.066400
      7 C11          4.6290     4.9640     7.5020 c          1 X7I       0.634100
      8 C12          5.0770     6.4400     9.4700 c3         1 X7I       0.119000
      9 C14          3.5910     8.2540     8.5090 cc         1 X7I      -0.150400
     10 C15          3.0500     8.3460     7.2530 cd         1 X7I      -0.149100
     11 C17          0.1410     9.1450     9.2410 ca         1 X7I      -0.126000
     12 N12          4.3470     5.4100     8.7410 ns         1 X7I      -0.483900
     13 O5           5.8200     5.4280     7.0620 os         1 X7I      -0.473100
     14 C7           7.3150     5.9990     5.3200 c5         1 X7I       0.126300
     15 O4           7.9210     5.4890     4.1110 os         1 X7I      -0.447000
     16 C3           6.8160     7.4100     4.9850 c5         1 X7I       0.108300
     17 O3           7.8280     8.3890     5.1670 oh         1 X7I      -0.692000
     18 C22          6.5270     7.2780     3.4850 c5         1 X7I       0.137300
     19 O2           6.5480     8.4600     2.7220 oh         1 X7I      -0.676000
     20 C1           7.6570     6.3570     3.0220 c5         1 X7I       0.311300
     21 N9           7.3420     5.5760     1.8460 na         1 X7I      -0.264300
     22 C8           6.3260     4.6700     1.6910 cc         1 X7I       0.399700
     23 N7           6.3090     4.1130     0.4990 nd         1 X7I      -0.518100
     24 N6           7.5420     3.7790    -2.5200 nc         1 X7I      -0.259600
     25 N1           9.0050     5.3080    -1.7620 na         1 X7I      -0.129400
     26 N3           9.1120     6.3380     0.3410 nc         1 X7I      -0.661000
     27 C9           8.4610     4.0940    -3.5010 cc         1 X7I      -0.034400
     28 C10          9.3650     5.0210    -3.0720 cd         1 X7I      -0.259100
     29 O11          3.9160     4.2150     6.8500 o          1 X7I      -0.540000
     30 N15          1.7160     8.6850     7.3350 na         1 X7I      -0.230700
     31 C21          2.5260     8.5480     9.4310 ca         1 X7I      -0.097800
     32 C20          2.4380     8.6130    10.8290 ca         1 X7I      -0.068000
     33 C19          1.2240     8.9380    11.4120 ca         1 X7I      -0.137000
     34 C18          0.0870     9.2020    10.6260 ca         1 X7I      -0.089000
     35 H1           5.5990     7.8720     7.9430 hc         1 X7I       0.050200
     36 H2           5.4380     8.5430     9.5570 hc         1 X7I       0.050200
     37 H3          10.4380     6.7230    -1.2060 h5         1 X7I       0.057100
     38 H4           6.1250     6.1490     9.5590 h1         1 X7I       0.055700
     39 H5           4.6540     6.4520    10.4730 h1         1 X7I       0.055700
     40 H6           3.5170     8.1900     6.2940 h4         1 X7I       0.206000
     41 H7          -0.7340     9.3480     8.6350 ha         1 X7I       0.116000
     42 H8           3.4230     5.1730     9.0650 hn         1 X7I       0.338500
     43 H9           5.3690     5.0670     5.0660 h1         1 X7I       0.066200
     44 H10          6.6130     4.0150     5.7650 h1         1 X7I       0.066200
     45 H11          8.0840     6.0440     6.0930 h1         1 X7I       0.090700
     46 H12          5.9180     7.6650     5.5510 h1         1 X7I       0.059700
     47 H13          8.0060     8.4660     6.1130 ho         1 X7I       0.509000
     48 H14          5.5720     6.7590     3.3710 h1         1 X7I       0.047700
     49 H15          5.7200     8.9370     2.8590 ho         1 X7I       0.513000
     50 H16          8.5400     6.9470     2.7680 h2         1 X7I       0.128700
     51 H17          5.6350     4.4510     2.4890 h5         1 X7I       0.069800
     52 H18          8.4190     3.6290    -4.4730 h4         1 X7I       0.230000
     53 H19         10.2060     5.4960    -3.5460 h4         1 X7I       0.231000
     54 H20          1.1030     8.8260     6.5490 hn         1 X7I       0.354000
     55 H21          3.3070     8.4150    11.4450 ha         1 X7I       0.111000
     56 H22          1.1440     8.9920    12.4910 ha         1 X7I       0.113000
     57 H23         -0.8480     9.4520    11.1110 ha         1 X7I       0.113000
     58 C23          6.2220     5.0320     5.7440 c3         1 X7I       0.161600
@<TRIPOS>BOND
     1     1     6 2   
     2     1    21 1   
     3     1    26 1   
     4     2     6 1   
     5     2    24 2   
     6     2    25 1   
     7     3     8 1   
     8     3     9 1   
     9     3    35 1   
    10     3    36 1   
    11     4    11 ar  
    12     4    30 1   
    13     4    31 ar  
    14     5    25 1   
    15     5    26 2   
    16     5    37 1   
    17     6    23 1   
    18     7    12 1   
    19     7    13 1   
    20     7    29 2   
    21     8    12 1   
    22     8    38 1   
    23     8    39 1   
    24     9    10 2   
    25     9    31 1   
    26    10    30 1   
    27    10    40 1   
    28    11    34 ar  
    29    11    41 1   
    30    12    42 1   
    31    13    58 1   
    32    14    15 1   
    33    14    16 1   
    34    14    45 1   
    35    14    58 1   
    36    15    20 1   
    37    16    17 1   
    38    16    18 1   
    39    16    46 1   
    40    17    47 1   
    41    18    19 1   
    42    18    20 1   
    43    18    48 1   
    44    19    49 1   
    45    20    21 1   
    46    20    50 1   
    47    21    22 1   
    48    22    23 2   
    49    22    51 1   
    50    24    27 1   
    51    25    28 1   
    52    27    28 2   
    53    27    52 1   
    54    28    53 1   
    55    30    54 1   
    56    31    32 ar  
    57    32    33 ar  
    58    32    55 1   
    59    33    34 ar  
    60    33    56 1   
    61    34    57 1   
    62    43    58 1   
    63    44    58 1   
@<TRIPOS>SUBSTRUCTURE
     1 X7I         1 TEMP              0 ****  ****    0 ROOT
