@<TRIPOS>MOLECULE
X7I
   58    63     1     0     0
SMALL
No Charge or Current Charge


@<TRIPOS>ATOM
      1 C4           7.3470     6.1420     1.8450 cc         1 X7I       0.312500
      2 C6           5.7290     5.8250     0.1510 cd         1 X7I       0.000000
      3 C13          4.5560     7.9100     6.7760 c3         1 X7I      -0.024200
      4 C16          0.8350     7.7370     6.8700 ca         1 X7I      -0.042200
      5 C2           8.0410     6.3710    -0.3760 cd         1 X7I       0.542400
      6 C5           6.0480     5.8580     1.5300 cd         1 X7I       0.066400
      7 C11          5.7120     4.7870     7.4770 c          1 X7I       0.634100
      8 C12          5.1250     7.1950     8.0210 c3         1 X7I       0.119000
      9 C14          3.0790     7.6850     6.5770 cc         1 X7I      -0.150400
     10 C15          2.4700     6.9260     5.5810 cd         1 X7I      -0.149100
     11 C17         -0.3990     8.0690     7.4470 ca         1 X7I      -0.126000
     12 N12          4.8850     5.7460     7.9980 ns         1 X7I      -0.483900
     13 O5           6.8710     5.3180     6.9840 os         1 X7I      -0.473100
     14 C7           9.1250     5.1610     5.9560 c5         1 X7I       0.126300
     15 O4           9.1610     5.1840     4.5080 os         1 X7I      -0.447000
     16 C3           9.2790     6.6690     6.3540 c5         1 X7I       0.108300
     17 O3          10.6340     7.1480     6.2150 oh         1 X7I      -0.692000
     18 C22          8.3590     7.3440     5.2910 c5         1 X7I       0.137300
     19 O2           8.7810     8.6980     5.0970 oh         1 X7I      -0.676000
     20 C1           8.5710     6.4200     4.0330 c5         1 X7I       0.311300
     21 N9           7.4000     6.1140     3.2120 na         1 X7I      -0.264300
     22 C8           6.1140     5.8290     3.6530 cc         1 X7I       0.399700
     23 N7           5.2660     5.6600     2.6420 nd         1 X7I      -0.518100
     24 N6           4.5910     5.5920    -0.4770 nc         1 X7I      -0.259600
     25 N1           6.7130     6.0710    -0.7510 na         1 X7I      -0.129400
     26 N3           8.3660     6.4070     0.9410 nc         1 X7I      -0.661000
     27 C9           4.8970     5.7030    -1.8220 cc         1 X7I      -0.034400
     28 C10          6.2300     6.0080    -2.0370 cd         1 X7I      -0.259100
     29 O11          5.4260     3.6020     7.4700 o          1 X7I      -0.540000
     30 N15          1.0650     6.9500     5.7570 na         1 X7I      -0.230700
     31 C21          2.0120     8.1980     7.3890 ca         1 X7I      -0.097800
     32 C20          2.0480     9.0300     8.5180 ca         1 X7I      -0.068000
     33 C19          0.8210     9.3800     9.1200 ca         1 X7I      -0.137000
     34 C18         -0.3990     8.9010     8.5870 ca         1 X7I      -0.089000
     35 H1           5.0980     7.5740     5.8870 hc         1 X7I       0.050200
     36 H2           4.7540     8.9840     6.8680 hc         1 X7I       0.050200
     37 H3           8.7610     6.5630    -1.1610 h5         1 X7I       0.057100
     38 H4           6.2010     7.3980     8.1040 h1         1 X7I       0.055700
     39 H5           4.6460     7.6040     8.9200 h1         1 X7I       0.055700
     40 H6           2.9320     6.3690     4.7700 h4         1 X7I       0.206000
     41 H7          -1.3320     7.6980     7.0280 ha         1 X7I       0.116000
     42 H8           4.0020     5.4070     8.3560 hn         1 X7I       0.338500
     43 H9           7.4370     3.8100     5.6300 h1         1 X7I       0.066200
     44 H10          8.1640     3.6990     7.2400 h1         1 X7I       0.066200
     45 H11          9.9900     4.5800     6.3030 h1         1 X7I       0.090700
     46 H12          8.9130     6.8550     7.3740 h1         1 X7I       0.059700
     47 H13         11.1850     6.6870     6.8930 ho         1 X7I       0.509000
     48 H14          7.3130     7.3260     5.6140 h1         1 X7I       0.047700
     49 H15          9.7190     8.6790     5.4200 ho         1 X7I       0.513000
     50 H16          9.2870     6.9060     3.3590 h2         1 X7I       0.128700
     51 H17          5.8630     5.7500     4.7020 h5         1 X7I       0.069800
     52 H18          4.1170     5.5540    -2.5660 h4         1 X7I       0.230000
     53 H19          6.8130     6.1690    -2.9420 h4         1 X7I       0.231000
     54 H20          0.3670     6.4850     5.1830 hn         1 X7I       0.354000
     55 H21          2.9900     9.3980     8.9170 ha         1 X7I       0.111000
     56 H22          0.8130    10.0230     9.9970 ha         1 X7I       0.113000
     57 H23         -1.3410     9.1760     9.0570 ha         1 X7I       0.113000
     58 C23          7.8530     4.4020     6.4560 c3         1 X7I       0.161600
@<TRIPOS>BOND
     1     1     6 2   
     2     1    21 1   
     3     1    26 1   
     4     2     6 1   
     5     2    24 2   
     6     2    25 1   
     7     3     8 1   
     8     3     9 1   
     9     3    35 1   
    10     3    36 1   
    11     4    11 ar  
    12     4    30 1   
    13     4    31 ar  
    14     5    25 1   
    15     5    26 2   
    16     5    37 1   
    17     6    23 1   
    18     7    12 1   
    19     7    13 1   
    20     7    29 2   
    21     8    12 1   
    22     8    38 1   
    23     8    39 1   
    24     9    10 2   
    25     9    31 1   
    26    10    30 1   
    27    10    40 1   
    28    11    34 ar  
    29    11    41 1   
    30    12    42 1   
    31    13    58 1   
    32    14    15 1   
    33    14    16 1   
    34    14    45 1   
    35    14    58 1   
    36    15    20 1   
    37    16    17 1   
    38    16    18 1   
    39    16    46 1   
    40    17    47 1   
    41    18    19 1   
    42    18    20 1   
    43    18    48 1   
    44    19    49 1   
    45    20    21 1   
    46    20    50 1   
    47    21    22 1   
    48    22    23 2   
    49    22    51 1   
    50    24    27 1   
    51    25    28 1   
    52    27    28 2   
    53    27    52 1   
    54    28    53 1   
    55    30    54 1   
    56    31    32 ar  
    57    32    33 ar  
    58    32    55 1   
    59    33    34 ar  
    60    33    56 1   
    61    34    57 1   
    62    43    58 1   
    63    44    58 1   
@<TRIPOS>SUBSTRUCTURE
     1 X7I         1 TEMP              0 ****  ****    0 ROOT
