@<TRIPOS>MOLECULE
X7J
   77    79     1     0     0
SMALL
abcg2


@<TRIPOS>ATOM
      1 C10        -16.0820   -33.3350     8.9800 c3         1 X7J       0.040600
      2 C02        -18.8310   -34.6100     4.3890 c3         1 X7J       0.223000
      3 C03        -20.2190   -34.1830     4.8520 c3         1 X7J      -0.108767
      4 C04        -18.4760   -33.8880     3.0950 c3         1 X7J      -0.108767
      5 C06        -16.6580   -34.3360     5.4750 c          1 X7J       0.649100
      6 C09        -16.7700   -33.0870     7.6400 c3         1 X7J       0.134700
      7 C12        -14.3390   -31.2410     9.7950 c3         1 X7J      -0.011700
      8 C13        -12.9050   -30.7060     9.7780 c3         1 X7J      -0.011100
      9 C01        -18.7840   -36.1250     4.2300 c3         1 X7J      -0.108767
     10 C14        -12.8200   -29.3330    10.3900 ca         1 X7J      -0.086300
     11 C15        -13.3400   -28.2280     9.7180 ca         1 X7J      -0.102000
     12 C16        -13.2580   -26.9570    10.2700 ca         1 X7J      -0.116000
     13 C17        -12.6540   -26.7740    11.5080 ca         1 X7J      -0.111000
     14 C18        -12.1410   -27.8680    12.1900 ca         1 X7J      -0.116000
     15 C19        -12.2300   -29.1390    11.6360 ca         1 X7J      -0.102000
     16 C20        -14.8580   -31.3260    11.2240 c          1 X7J       0.598100
     17 C23        -16.6120   -30.5480    12.7560 c3         1 X7J       0.108000
     18 C24        -15.8840   -29.6830    13.7800 c3         1 X7J      -0.093400
     19 C25        -15.6130   -28.2520    13.3260 c3         1 X7J      -0.031100
     20 C26        -16.8220   -27.4270    12.9770 ca         1 X7J      -0.119300
     21 C27        -18.0220   -27.5160    13.6800 ca         1 X7J       0.329900
     22 C29        -19.0240   -25.8870    12.4450 ca         1 X7J       0.324900
     23 C30        -17.8840   -25.7080    11.6750 ca         1 X7J      -0.165000
     24 C31        -16.7750   -26.4930    11.9460 ca         1 X7J      -0.084000
     25 C32        -16.8510   -31.6130     7.2290 c3         1 X7J      -0.064100
     26 C33        -17.5500   -30.6930     8.1950 ca         1 X7J      -0.077300
     27 C34        -18.6420   -31.0980     8.9610 ca         1 X7J      -0.120500
     28 C35        -19.2600   -30.2220     9.8450 ca         1 X7J      -0.110500
     29 C36        -18.8040   -28.9170     9.9750 ca         1 X7J      -0.114000
     30 C37        -17.7300   -28.4930     9.2020 ca         1 X7J      -0.110500
     31 C38        -17.1120   -29.3750     8.3250 ca         1 X7J      -0.120500
     32 N08        -16.1010   -33.8630     6.6150 ns         1 X7J      -0.501900
     33 N22        -15.9610   -30.6070    11.4640 ns         1 X7J      -0.503900
     34 N28        -19.0950   -26.7760    13.4290 nb         1 X7J      -0.665000
     35 O05        -17.9770   -34.1780     5.4800 os         1 X7J      -0.480100
     36 O07        -16.0100   -34.8540     4.5860 o          1 X7J      -0.544000
     37 O21        -14.2980   -32.0090    12.0670 o          1 X7J      -0.587100
     38 S11        -14.3180   -32.8990     9.0440 ss         1 X7J      -0.402000
     39 H1         -16.6070   -32.8110     9.7790 h1         1 X7J       0.086200
     40 H2         -16.1390   -34.3990     9.2140 h1         1 X7J       0.086200
     41 H3         -20.2740   -33.1040     5.0010 hc         1 X7J       0.049478
     42 H4         -20.9590   -34.4570     4.1010 hc         1 X7J       0.049478
     43 H5         -20.4930   -34.6740     5.7870 hc         1 X7J       0.049478
     44 H6         -18.4380   -32.8090     3.2490 hc         1 X7J       0.049478
     45 H7         -17.5250   -34.2140     2.6790 hc         1 X7J       0.049478
     46 H8         -19.2500   -34.0860     2.3520 hc         1 X7J       0.049478
     47 H9         -17.7780   -33.4860     7.7540 h1         1 X7J       0.076700
     48 H10        -14.9670   -30.5870     9.1880 h1         1 X7J       0.073700
     49 H11        -12.5620   -30.6730     8.7410 hc         1 X7J       0.072200
     50 H12        -12.2500   -31.3970    10.3110 hc         1 X7J       0.072200
     51 H13        -19.0180   -36.6240     5.1720 hc         1 X7J       0.049478
     52 H14        -19.5340   -36.4320     3.5000 hc         1 X7J       0.049478
     53 H15        -17.8150   -36.4750     3.8800 hc         1 X7J       0.049478
     54 H16        -13.7970   -28.3570     8.7430 ha         1 X7J       0.116500
     55 H17        -13.6570   -26.1080     9.7300 ha         1 X7J       0.113000
     56 H18        -12.5840   -25.7830    11.9380 ha         1 X7J       0.114000
     57 H19        -11.6720   -27.7340    13.1560 ha         1 X7J       0.113000
     58 H20        -11.8260   -29.9890    12.1730 ha         1 X7J       0.116500
     59 H21        -17.6190   -30.1710    12.5790 h1         1 X7J       0.051200
     60 H22        -16.7230   -31.5590    13.1490 h1         1 X7J       0.051200
     61 H23        -14.9280   -30.1480    14.0270 hc         1 X7J       0.056200
     62 H24        -16.4700   -29.6920    14.7030 hc         1 X7J       0.056200
     63 H25        -14.9340   -28.2620    12.4720 hc         1 X7J       0.057200
     64 H26        -15.0630   -27.7410    14.1230 hc         1 X7J       0.057200
     65 H27        -18.1220   -28.2270    14.4950 h4         1 X7J       0.018100
     66 H28        -19.9110   -25.2910    12.2600 h4         1 X7J       0.019100
     67 H29        -17.8700   -24.9750    10.8800 ha         1 X7J       0.122000
     68 H30        -15.8710   -26.3820    11.3590 ha         1 X7J       0.120000
     69 H31        -15.8370   -31.2440     7.0460 hc         1 X7J       0.063200
     70 H32        -17.3640   -31.5700     6.2640 hc         1 X7J       0.063200
     71 H33        -19.0220   -32.1100     8.8840 ha         1 X7J       0.114000
     72 H34        -20.0990   -30.5650    10.4370 ha         1 X7J       0.118000
     73 H35        -19.2790   -28.2390    10.6710 ha         1 X7J       0.124000
     74 H36        -17.3670   -27.4780     9.2860 ha         1 X7J       0.118000
     75 H37        -16.2720   -29.0310     7.7310 ha         1 X7J       0.114000
     76 H38        -15.0920   -33.8200     6.6030 hn         1 X7J       0.336500
     77 H39        -16.3520   -30.0520    10.7180 hn         1 X7J       0.323500
@<TRIPOS>BOND
     1     1     6 1   
     2     1    38 1   
     3     1    39 1   
     4     1    40 1   
     5     2     3 1   
     6     2     4 1   
     7     2     9 1   
     8     2    35 1   
     9     3    41 1   
    10     3    42 1   
    11     3    43 1   
    12     4    44 1   
    13     4    45 1   
    14     4    46 1   
    15     5    32 1   
    16     5    35 1   
    17     5    36 2   
    18     6    25 1   
    19     6    32 1   
    20     6    47 1   
    21     7     8 1   
    22     7    16 1   
    23     7    38 1   
    24     7    48 1   
    25     8    10 1   
    26     8    49 1   
    27     8    50 1   
    28     9    51 1   
    29     9    52 1   
    30     9    53 1   
    31    10    11 ar  
    32    10    15 ar  
    33    11    12 ar  
    34    11    54 1   
    35    12    13 ar  
    36    12    55 1   
    37    13    14 ar  
    38    13    56 1   
    39    14    15 ar  
    40    14    57 1   
    41    15    58 1   
    42    16    33 1   
    43    16    37 2   
    44    17    18 1   
    45    17    33 1   
    46    17    59 1   
    47    17    60 1   
    48    18    19 1   
    49    18    61 1   
    50    18    62 1   
    51    19    20 1   
    52    19    63 1   
    53    19    64 1   
    54    20    21 ar  
    55    20    24 ar  
    56    21    34 ar  
    57    21    65 1   
    58    22    23 ar  
    59    22    34 ar  
    60    22    66 1   
    61    23    24 ar  
    62    23    67 1   
    63    24    68 1   
    64    25    26 1   
    65    25    69 1   
    66    25    70 1   
    67    26    27 ar  
    68    26    31 ar  
    69    27    28 ar  
    70    27    71 1   
    71    28    29 ar  
    72    28    72 1   
    73    29    30 ar  
    74    29    73 1   
    75    30    31 ar  
    76    30    74 1   
    77    31    75 1   
    78    32    76 1   
    79    33    77 1   
@<TRIPOS>SUBSTRUCTURE
     1 X7J         1 TEMP              0 ****  ****    0 ROOT
