@<TRIPOS>MOLECULE
X7J
   77    79     1     0     0
SMALL
No Charge or Current Charge


@<TRIPOS>ATOM
      1 C10        -16.0570   -33.5090     9.0780 c3         1 X7J       0.040600
      2 C02        -18.8140   -34.4620     4.2980 c3         1 X7J       0.223000
      3 C03        -20.1970   -33.8830     4.6710 c3         1 X7J      -0.108767
      4 C04        -18.2700   -33.7560     3.0300 c3         1 X7J      -0.108767
      5 C06        -16.6490   -34.4690     5.4980 c          1 X7J       0.649100
      6 C09        -16.7490   -33.2420     7.7150 c3         1 X7J       0.134700
      7 C12        -14.2680   -31.3920     9.8520 c3         1 X7J      -0.011700
      8 C13        -12.8550   -30.7720     9.8060 c3         1 X7J      -0.011100
      9 C01        -18.9080   -36.0020     4.1460 c3         1 X7J      -0.108767
     10 C14        -12.8410   -29.3280    10.2970 ca         1 X7J      -0.086300
     11 C15        -13.4370   -28.3120     9.5250 ca         1 X7J      -0.102000
     12 C16        -13.4310   -26.9810     9.9770 ca         1 X7J      -0.116000
     13 C17        -12.8270   -26.6580    11.2030 ca         1 X7J      -0.111000
     14 C18        -12.2300   -27.6660    11.9770 ca         1 X7J      -0.116000
     15 C19        -12.2390   -28.9980    11.5270 ca         1 X7J      -0.102000
     16 C20        -14.8290   -31.4160    11.2950 c          1 X7J       0.598100
     17 C23        -16.6720   -30.5330    12.7710 c3         1 X7J       0.108000
     18 C24        -15.8980   -29.6620    13.7870 c3         1 X7J      -0.093400
     19 C25        -15.6180   -28.2130    13.3150 c3         1 X7J      -0.031100
     20 C26        -16.8540   -27.3630    13.0180 ca         1 X7J      -0.119300
     21 C27        -18.0360   -27.4520    13.7890 ca         1 X7J       0.329900
     22 C29        -19.0900   -25.8090    12.5390 ca         1 X7J       0.324900
     23 C30        -17.9570   -25.6420    11.7270 ca         1 X7J      -0.165000
     24 C31        -16.8180   -26.4260    11.9680 ca         1 X7J      -0.084000
     25 C32        -16.8350   -31.7430     7.3150 c3         1 X7J      -0.064100
     26 C33        -17.5010   -30.8060     8.3270 ca         1 X7J      -0.077300
     27 C34        -18.5680   -31.2260     9.1500 ca         1 X7J      -0.120500
     28 C35        -19.1590   -30.3320    10.0600 ca         1 X7J      -0.110500
     29 C36        -18.6990   -29.0080    10.1480 ca         1 X7J      -0.114000
     30 C37        -17.6510   -28.5770     9.3210 ca         1 X7J      -0.110500
     31 C38        -17.0600   -29.4700     8.4120 ca         1 X7J      -0.120500
     32 N08        -16.0820   -34.0180     6.6610 ns         1 X7J      -0.501900
     33 N22        -15.9780   -30.6770    11.4890 ns         1 X7J      -0.503900
     34 N28        -19.1370   -26.6960    13.5590 nb         1 X7J      -0.665000
     35 O05        -17.9780   -34.1350     5.4310 os         1 X7J      -0.480100
     36 O07        -16.0100   -35.0840     4.6630 o          1 X7J      -0.544000
     37 O21        -14.3100   -32.0590    12.1990 o          1 X7J      -0.587100
     38 S11        -14.2440   -33.0850     9.0710 ss         1 X7J      -0.402000
     39 H1         -16.5710   -32.9640     9.8780 h1         1 X7J       0.086200
     40 H2         -16.1520   -34.5790     9.3050 h1         1 X7J       0.086200
     41 H3         -20.1360   -32.8000     4.8290 hc         1 X7J       0.049478
     42 H4         -20.9260   -34.0700     3.8730 hc         1 X7J       0.049478
     43 H5         -20.5760   -34.3420     5.5920 hc         1 X7J       0.049478
     44 H6         -18.0610   -32.6990     3.2320 hc         1 X7J       0.049478
     45 H7         -17.3520   -34.2270     2.6610 hc         1 X7J       0.049478
     46 H8         -19.0070   -33.8060     2.2200 hc         1 X7J       0.049478
     47 H9         -17.7740   -33.6230     7.8100 h1         1 X7J       0.076700
     48 H10        -14.9260   -30.7590     9.2490 h1         1 X7J       0.073700
     49 H11        -12.4850   -30.8090     8.7740 hc         1 X7J       0.072200
     50 H12        -12.1690   -31.3920    10.3970 hc         1 X7J       0.072200
     51 H13        -19.1300   -36.4760     5.1100 hc         1 X7J       0.049478
     52 H14        -19.7080   -36.2680     3.4460 hc         1 X7J       0.049478
     53 H15        -17.9800   -36.4330     3.7550 hc         1 X7J       0.049478
     54 H16        -13.9020   -28.5510     8.5710 ha         1 X7J       0.116500
     55 H17        -13.8930   -26.2010     9.3750 ha         1 X7J       0.113000
     56 H18        -12.8220   -25.6280    11.5530 ha         1 X7J       0.114000
     57 H19        -11.7640   -27.4180    12.9280 ha         1 X7J       0.113000
     58 H20        -11.7780   -29.7720    12.1370 ha         1 X7J       0.116500
     59 H21        -17.6590   -30.0910    12.5860 h1         1 X7J       0.051200
     60 H22        -16.8320   -31.5320    13.1970 h1         1 X7J       0.051200
     61 H23        -14.9390   -30.1440    14.0090 hc         1 X7J       0.056200
     62 H24        -16.4470   -29.6450    14.7350 hc         1 X7J       0.056200
     63 H25        -14.9820   -28.2620    12.4230 hc         1 X7J       0.057200
     64 H26        -15.0150   -27.7110    14.0810 hc         1 X7J       0.057200
     65 H27        -18.1110   -28.1430    14.6270 h4         1 X7J       0.018100
     66 H28        -19.9870   -25.2130    12.3720 h4         1 X7J       0.019100
     67 H29        -17.9680   -24.9120    10.9230 ha         1 X7J       0.122000
     68 H30        -15.9280   -26.3070    11.3530 ha         1 X7J       0.120000
     69 H31        -15.8210   -31.3890     7.0930 hc         1 X7J       0.063200
     70 H32        -17.3820   -31.6690     6.3670 hc         1 X7J       0.063200
     71 H33        -18.9540   -32.2400     9.0900 ha         1 X7J       0.114000
     72 H34        -19.9780   -30.6640    10.6940 ha         1 X7J       0.118000
     73 H35        -19.1600   -28.3170    10.8500 ha         1 X7J       0.124000
     74 H36        -17.3010   -27.5480     9.3740 ha         1 X7J       0.118000
     75 H37        -16.2570   -29.1180     7.7670 ha         1 X7J       0.114000
     76 H38        -15.0980   -34.2220     6.7750 hn         1 X7J       0.336500
     77 H39        -16.3630   -30.1980    10.6820 hn         1 X7J       0.323500
@<TRIPOS>BOND
     1     1     6 1   
     2     1    38 1   
     3     1    39 1   
     4     1    40 1   
     5     2     3 1   
     6     2     4 1   
     7     2     9 1   
     8     2    35 1   
     9     3    41 1   
    10     3    42 1   
    11     3    43 1   
    12     4    44 1   
    13     4    45 1   
    14     4    46 1   
    15     5    32 1   
    16     5    35 1   
    17     5    36 2   
    18     6    25 1   
    19     6    32 1   
    20     6    47 1   
    21     7     8 1   
    22     7    16 1   
    23     7    38 1   
    24     7    48 1   
    25     8    10 1   
    26     8    49 1   
    27     8    50 1   
    28     9    51 1   
    29     9    52 1   
    30     9    53 1   
    31    10    11 ar  
    32    10    15 ar  
    33    11    12 ar  
    34    11    54 1   
    35    12    13 ar  
    36    12    55 1   
    37    13    14 ar  
    38    13    56 1   
    39    14    15 ar  
    40    14    57 1   
    41    15    58 1   
    42    16    33 1   
    43    16    37 2   
    44    17    18 1   
    45    17    33 1   
    46    17    59 1   
    47    17    60 1   
    48    18    19 1   
    49    18    61 1   
    50    18    62 1   
    51    19    20 1   
    52    19    63 1   
    53    19    64 1   
    54    20    21 ar  
    55    20    24 ar  
    56    21    34 ar  
    57    21    65 1   
    58    22    23 ar  
    59    22    34 ar  
    60    22    66 1   
    61    23    24 ar  
    62    23    67 1   
    63    24    68 1   
    64    25    26 1   
    65    25    69 1   
    66    25    70 1   
    67    26    27 ar  
    68    26    31 ar  
    69    27    28 ar  
    70    27    71 1   
    71    28    29 ar  
    72    28    72 1   
    73    29    30 ar  
    74    29    73 1   
    75    30    31 ar  
    76    30    74 1   
    77    31    75 1   
    78    32    76 1   
    79    33    77 1   
@<TRIPOS>SUBSTRUCTURE
     1 X7J         1 TEMP              0 ****  ****    0 ROOT
