@<TRIPOS>MOLECULE
X7L
   72    76     1     0     0
SMALL
abcg2


@<TRIPOS>ATOM
      1 C14        132.8340   174.3250   189.7260 ca         1 X7L      -0.269000
      2 C11        133.8640   176.6330   188.5650 ca         1 X7L       0.067000
      3 C10        132.8200   176.7360   189.4580 ca         1 X7L      -0.244000
      4 C12        134.4230   175.3930   188.2340 ca         1 X7L      -0.456500
      5 C13        133.8620   174.2560   188.8280 ca         1 X7L       0.323000
      6 C01        132.2690   175.9990   194.0470 c3         1 X7L       0.153600
      7 C02        130.2360   174.9590   194.8130 c3         1 X7L       0.153600
      8 C03        130.1220   176.4970   192.9310 c6         1 X7L       0.166500
      9 C04        129.7630   177.7950   193.6920 c6         1 X7L      -0.101400
     10 C05        129.4230   178.9630   192.7510 c6         1 X7L      -0.074400
     11 C06        128.7510   178.4490   191.4790 c6         1 X7L      -0.074400
     12 C07        129.7080   177.5420   190.6800 c6         1 X7L      -0.086400
     13 C08        130.7560   176.8480   191.5760 c6         1 X7L       0.228500
     14 C09        132.2870   175.5820   190.0760 ca         1 X7L       0.420000
     15 C15        135.0500   173.3220   185.3760 cc         1 X7L       0.593100
     16 C16        134.2430   171.5480   184.3370 ca         1 X7L       0.078400
     17 C17        135.3890   170.9500   184.8990 ca         1 X7L      -0.168000
     18 C18        135.6850   169.6100   184.7130 ca         1 X7L      -0.109000
     19 C19        134.8180   168.8450   183.9310 ca         1 X7L       0.146100
     20 C20        134.3230   166.6820   182.9950 c3         1 X7L       0.173600
     21 C21        134.9460   165.3060   182.9720 c5         1 X7L      -0.075700
     22 C22        135.0460   164.6190   184.3390 c5         1 X7L      -0.073400
     23 C23        135.2910   163.1390   183.9970 c5         1 X7L      -0.078900
     24 C24        134.6320   162.9140   182.6080 c5         1 X7L      -0.078900
     25 C25        134.1310   164.3000   182.1470 c5         1 X7L      -0.073400
     26 C26        133.6710   169.4240   183.3650 ca         1 X7L      -0.190000
     27 C27        133.3850   170.7680   183.5670 ca         1 X7L      -0.026000
     28 F01        134.3440   173.0380   188.5000 f          1 X7L      -0.162000
     29 N01        130.9400   175.5320   193.6750 n3         1 X7L      -0.749600
     30 N02        131.2780   175.6310   190.9740 nu         1 X7L      -0.938200
     31 N03        135.1740   174.6650   185.6930 nu         1 X7L      -0.812300
     32 N04        134.0820   172.8940   184.6350 nd         1 X7L      -0.586100
     33 O01        136.7510   174.3760   187.5890 o          1 X7L      -0.534500
     34 O02        136.1390   176.6530   186.7850 o          1 X7L      -0.534500
     35 O03        135.1710   167.5420   183.7680 os         1 X7L      -0.356100
     36 S01        135.7580   175.3070   187.1190 sy         1 X7L       1.228600
     37 S02        136.2810   172.1380   185.8160 ss         1 X7L       0.112800
     38 H1         132.4440   173.4140   190.1620 ha         1 X7L       0.138000
     39 H2         134.2730   177.5250   188.1110 ha         1 X7L       0.139000
     40 H3         132.4210   177.7120   189.6890 ha         1 X7L       0.124000
     41 H4         132.8310   175.1610   194.4630 h1         1 X7L       0.035867
     42 H5         132.8050   176.3610   193.1700 h1         1 X7L       0.035867
     43 H6         132.2580   176.8010   194.7990 h1         1 X7L       0.035867
     44 H7         130.8200   174.1310   195.2190 h1         1 X7L       0.035867
     45 H8         130.0670   175.6810   195.6270 h1         1 X7L       0.035867
     46 H9         129.2670   174.5750   194.4910 h1         1 X7L       0.035867
     47 H10        129.1920   175.9630   192.7090 h1         1 X7L       0.065700
     48 H11        130.5940   178.0790   194.3410 hc         1 X7L       0.046700
     49 H12        128.9120   177.5890   194.3430 hc         1 X7L       0.046700
     50 H13        130.3350   179.5040   192.4810 hc         1 X7L       0.044700
     51 H14        128.7790   179.6790   193.2660 hc         1 X7L       0.044700
     52 H15        128.4180   179.2790   190.8530 hc         1 X7L       0.046200
     53 H16        127.8530   177.8890   191.7560 hc         1 X7L       0.046200
     54 H17        129.1440   176.7660   190.1580 hc         1 X7L       0.053200
     55 H18        130.2230   178.1280   189.9170 hc         1 X7L       0.053200
     56 H19        131.5880   177.5380   191.7510 h1         1 X7L       0.051700
     57 H20        136.5650   169.1500   185.1430 ha         1 X7L       0.138000
     58 H21        134.2220   167.0830   181.9820 h1         1 X7L       0.036200
     59 H22        133.3290   166.6430   183.4540 h1         1 X7L       0.036200
     60 H23        135.9510   165.3880   182.5420 hc         1 X7L       0.064700
     61 H24        135.8230   165.0430   184.9740 hc         1 X7L       0.045700
     62 H25        134.0900   164.7360   184.8610 hc         1 X7L       0.045700
     63 H26        134.8860   162.4730   184.7600 hc         1 X7L       0.041950
     64 H27        136.3640   162.9430   183.9400 hc         1 X7L       0.041950
     65 H28        133.8140   162.1950   182.6570 hc         1 X7L       0.041950
     66 H29        135.3630   162.5180   181.9010 hc         1 X7L       0.041950
     67 H30        134.2380   164.4530   181.0720 hc         1 X7L       0.045700
     68 H31        133.0710   164.4180   182.3900 hc         1 X7L       0.045700
     69 H32        132.9990   168.8280   182.7650 ha         1 X7L       0.119000
     70 H33        132.4990   171.2100   183.1310 ha         1 X7L       0.128000
     71 H35        131.1540   174.8140   191.5570 hn         1 X7L       0.511000
     72 H36        134.4690   175.2500   185.2550 hn         1 X7L       0.507000
@<TRIPOS>BOND
     1     1     5 ar  
     2     1    14 ar  
     3     1    38 1   
     4     2     3 ar  
     5     2     4 ar  
     6     2    39 1   
     7     3    14 ar  
     8     3    40 1   
     9     4     5 ar  
    10     4    36 1   
    11     5    28 1   
    12     6    29 1   
    13     6    41 1   
    14     6    42 1   
    15     6    43 1   
    16     7    29 1   
    17     7    44 1   
    18     7    45 1   
    19     7    46 1   
    20     8     9 1   
    21     8    13 1   
    22     8    29 1   
    23     8    47 1   
    24     9    10 1   
    25     9    48 1   
    26     9    49 1   
    27    10    11 1   
    28    10    50 1   
    29    10    51 1   
    30    11    12 1   
    31    11    52 1   
    32    11    53 1   
    33    12    13 1   
    34    12    54 1   
    35    12    55 1   
    36    13    30 1   
    37    13    56 1   
    38    14    30 1   
    39    15    31 1   
    40    15    32 2   
    41    15    37 1   
    42    16    17 ar  
    43    16    27 ar  
    44    16    32 1   
    45    17    18 ar  
    46    17    37 1   
    47    18    19 ar  
    48    18    57 1   
    49    19    26 ar  
    50    19    35 1   
    51    20    21 1   
    52    20    35 1   
    53    20    58 1   
    54    20    59 1   
    55    21    22 1   
    56    21    25 1   
    57    21    60 1   
    58    22    23 1   
    59    22    61 1   
    60    22    62 1   
    61    23    24 1   
    62    23    63 1   
    63    23    64 1   
    64    24    25 1   
    65    24    65 1   
    66    24    66 1   
    67    25    67 1   
    68    25    68 1   
    69    26    27 ar  
    70    26    69 1   
    71    27    70 1   
    72    30    71 1   
    73    31    36 1   
    74    31    72 1   
    75    33    36 2   
    76    34    36 2   
@<TRIPOS>SUBSTRUCTURE
     1 X7L         1 TEMP              0 ****  ****    0 ROOT
