@<TRIPOS>MOLECULE
X7L
   72    76     1     0     0
SMALL
No Charge or Current Charge


@<TRIPOS>ATOM
      1 C14        134.4910   174.7120   189.6190 ca         1 X7L      -0.269000
      2 C11        134.0080   176.2500   187.3270 ca         1 X7L       0.067000
      3 C10        132.9410   175.6970   188.0480 ca         1 X7L      -0.244000
      4 C12        135.3310   176.0270   187.7550 ca         1 X7L      -0.456500
      5 C13        135.5640   175.2590   188.9100 ca         1 X7L       0.323000
      6 C01        132.8600   175.0500   193.1360 c3         1 X7L       0.153600
      7 C02        131.4860   173.1270   193.8350 c3         1 X7L       0.153600
      8 C03        130.7010   174.5250   191.9190 c6         1 X7L       0.166500
      9 C04        129.7450   175.4650   192.7240 c6         1 X7L      -0.101400
     10 C05        128.8240   176.3260   191.8090 c6         1 X7L      -0.074400
     11 C06        128.5490   175.6360   190.4500 c6         1 X7L      -0.074400
     12 C07        129.8640   175.3980   189.6490 c6         1 X7L      -0.086400
     13 C08        131.1100   175.2030   190.5660 c6         1 X7L       0.228500
     14 C09        133.1830   174.9340   189.1930 ca         1 X7L       0.420000
     15 C15        136.2390   174.6170   185.2850 cc         1 X7L       0.593100
     16 C16        135.0850   172.9940   184.3850 ca         1 X7L       0.078400
     17 C17        135.7200   172.2820   185.3850 ca         1 X7L      -0.168000
     18 C18        135.5000   170.9080   185.5710 ca         1 X7L      -0.109000
     19 C19        134.6070   170.2370   184.7150 ca         1 X7L       0.146100
     20 C20        133.5090   168.1140   184.1060 c3         1 X7L       0.173600
     21 C21        133.5280   166.6580   184.6260 c5         1 X7L      -0.075700
     22 C22        132.9790   166.4690   186.0650 c5         1 X7L      -0.073400
     23 C23        132.9180   164.9190   186.1890 c5         1 X7L      -0.078900
     24 C24        132.6670   164.4090   184.7320 c5         1 X7L      -0.078900
     25 C25        132.5720   165.7010   183.8710 c5         1 X7L      -0.073400
     26 C26        133.9520   170.9560   183.6840 ca         1 X7L      -0.190000
     27 C27        134.1930   172.3370   183.5210 ca         1 X7L      -0.026000
     28 F01        136.8110   175.0160   189.3650 f          1 X7L      -0.162000
     29 N01        131.8770   174.0160   192.7160 n3         1 X7L      -0.749600
     30 N02        132.1430   174.3780   189.9190 nu         1 X7L      -0.938200
     31 N03        136.6560   175.8940   185.3680 nu         1 X7L      -0.812300
     32 N04        135.3820   174.3500   184.3040 nd         1 X7L      -0.586100
     33 O01        137.9730   176.4520   187.3760 o          1 X7L      -0.534500
     34 O02        136.2730   178.0740   186.3550 o          1 X7L      -0.534500
     35 O03        134.4080   168.8870   184.9200 os         1 X7L      -0.356100
     36 S01        136.6610   176.7350   186.7950 sy         1 X7L       1.228600
     37 S02        136.7930   173.2900   186.3420 ss         1 X7L       0.112800
     38 H1         134.6840   174.1190   190.5070 ha         1 X7L       0.138000
     39 H2         133.7990   176.8390   186.4340 ha         1 X7L       0.139000
     40 H3         131.9260   175.8550   187.7020 ha         1 X7L       0.124000
     41 H4         133.7490   174.5750   193.5710 h1         1 X7L       0.035867
     42 H5         133.1940   175.6570   192.2860 h1         1 X7L       0.035867
     43 H6         132.4360   175.7210   193.8940 h1         1 X7L       0.035867
     44 H7         132.3720   172.6630   194.2880 h1         1 X7L       0.035867
     45 H8         130.9570   173.6870   194.6180 h1         1 X7L       0.035867
     46 H9         130.8280   172.3220   193.4810 h1         1 X7L       0.035867
     47 H10        130.1020   173.6470   191.6310 h1         1 X7L       0.065700
     48 H11        130.3100   176.1410   193.3780 hc         1 X7L       0.046700
     49 H12        129.1240   174.8500   193.3890 hc         1 X7L       0.046700
     50 H13        129.2950   177.3020   191.6270 hc         1 X7L       0.044700
     51 H14        127.8770   176.5360   192.3260 hc         1 X7L       0.044700
     52 H15        127.8520   176.2380   189.8520 hc         1 X7L       0.046200
     53 H16        128.0460   174.6750   190.6290 hc         1 X7L       0.046200
     54 H17        129.7270   174.5240   188.9980 hc         1 X7L       0.053200
     55 H18        130.0420   176.2530   188.9850 hc         1 X7L       0.053200
     56 H19        131.5230   176.1940   190.8120 h1         1 X7L       0.051700
     57 H20        136.0080   170.3650   186.3640 ha         1 X7L       0.138000
     58 H21        133.8290   168.1260   183.0560 h1         1 X7L       0.036200
     59 H22        132.4870   168.5110   184.1680 h1         1 X7L       0.036200
     60 H23        134.5660   166.3090   184.5510 hc         1 X7L       0.064700
     61 H24        133.6280   166.9180   186.8260 hc         1 X7L       0.045700
     62 H25        131.9850   166.9180   186.1810 hc         1 X7L       0.045700
     63 H26        132.1290   164.6020   186.8800 hc         1 X7L       0.041950
     64 H27        133.8610   164.5190   186.5800 hc         1 X7L       0.041950
     65 H28        131.7560   163.8050   184.6560 hc         1 X7L       0.041950
     66 H29        133.4970   163.7750   184.3970 hc         1 X7L       0.041950
     67 H30        132.8820   165.5300   182.8340 hc         1 X7L       0.045700
     68 H31        131.5460   166.0890   183.8440 hc         1 X7L       0.045700
     69 H32        133.2590   170.4670   183.0070 ha         1 X7L       0.119000
     70 H33        133.6920   172.8930   182.7320 ha         1 X7L       0.128000
     71 H35        132.4910   173.6900   190.5920 hn         1 X7L       0.511000
     72 H36        136.1460   176.4850   184.7350 hn         1 X7L       0.507000
@<TRIPOS>BOND
     1     1     5 ar  
     2     1    14 ar  
     3     1    38 1   
     4     2     3 ar  
     5     2     4 ar  
     6     2    39 1   
     7     3    14 ar  
     8     3    40 1   
     9     4     5 ar  
    10     4    36 1   
    11     5    28 1   
    12     6    29 1   
    13     6    41 1   
    14     6    42 1   
    15     6    43 1   
    16     7    29 1   
    17     7    44 1   
    18     7    45 1   
    19     7    46 1   
    20     8     9 1   
    21     8    13 1   
    22     8    29 1   
    23     8    47 1   
    24     9    10 1   
    25     9    48 1   
    26     9    49 1   
    27    10    11 1   
    28    10    50 1   
    29    10    51 1   
    30    11    12 1   
    31    11    52 1   
    32    11    53 1   
    33    12    13 1   
    34    12    54 1   
    35    12    55 1   
    36    13    30 1   
    37    13    56 1   
    38    14    30 1   
    39    15    31 1   
    40    15    32 2   
    41    15    37 1   
    42    16    17 ar  
    43    16    27 ar  
    44    16    32 1   
    45    17    18 ar  
    46    17    37 1   
    47    18    19 ar  
    48    18    57 1   
    49    19    26 ar  
    50    19    35 1   
    51    20    21 1   
    52    20    35 1   
    53    20    58 1   
    54    20    59 1   
    55    21    22 1   
    56    21    25 1   
    57    21    60 1   
    58    22    23 1   
    59    22    61 1   
    60    22    62 1   
    61    23    24 1   
    62    23    63 1   
    63    23    64 1   
    64    24    25 1   
    65    24    65 1   
    66    24    66 1   
    67    25    67 1   
    68    25    68 1   
    69    26    27 ar  
    70    26    69 1   
    71    27    70 1   
    72    30    71 1   
    73    31    36 1   
    74    31    72 1   
    75    33    36 2   
    76    34    36 2   
@<TRIPOS>SUBSTRUCTURE
     1 X7L         1 TEMP              0 ****  ****    0 ROOT
