@<TRIPOS>MOLECULE
X7M
   77    79     1     0     0
SMALL
No Charge or Current Charge


@<TRIPOS>ATOM
      1 C13        -13.3710   -31.0250    -4.0890 c3         1 X7M      -0.012100
      2 C17        -10.3520   -32.9560    -1.6280 ca         1 X7M      -0.108000
      3 C20        -15.6850   -31.1960    -5.1400 c          1 X7M       0.592100
      4 C12        -14.5230   -31.9770    -4.4890 c3         1 X7M      -0.014700
      5 C14        -12.3090   -31.7040    -3.2280 ca         1 X7M      -0.084300
      6 C02        -14.9080   -34.4100   -11.3870 c3         1 X7M       0.222000
      7 C03        -16.3380   -34.4480   -11.9860 c3         1 X7M      -0.113100
      8 C04        -14.2400   -33.0140   -11.4890 c3         1 X7M      -0.113100
      9 C06        -15.6690   -34.1490    -9.0570 c          1 X7M       0.670100
     10 C09        -16.2420   -34.4750    -6.6350 c3         1 X7M       0.123700
     11 C01        -14.0200   -35.4690   -12.0780 c3         1 X7M      -0.113100
     12 C15        -11.0490   -32.0280    -3.7690 ca         1 X7M      -0.098000
     13 C16        -10.0740   -32.6530    -2.9720 ca         1 X7M      -0.110500
     14 C18        -11.6060   -32.6350    -1.0830 ca         1 X7M      -0.110500
     15 C19        -12.5820   -32.0100    -1.8800 ca         1 X7M      -0.098000
     16 C23        -16.5750   -30.3080    -7.3180 c3         1 X7M       0.102000
     17 C24        -15.9420   -29.6860    -8.5780 c3         1 X7M      -0.091400
     18 C25        -16.9400   -28.8580    -9.4210 c3         1 X7M      -0.023100
     19 C26        -18.1470   -29.6620    -9.8950 ca         1 X7M      -0.127300
     20 C27        -19.4440   -29.3620    -9.4240 ca         1 X7M       0.329900
     21 C29        -20.3950   -31.0460   -10.6980 ca         1 X7M       0.320900
     22 C30        -19.1450   -31.4150   -11.2220 ca         1 X7M      -0.166000
     23 C31        -17.9980   -30.7130   -10.8190 ca         1 X7M      -0.071000
     24 C32        -17.5210   -35.3260    -6.4600 c3         1 X7M      -0.046100
     25 C33        -18.5360   -35.0840    -7.5730 ca         1 X7M      -0.080300
     26 C34        -19.4190   -33.9890    -7.4950 ca         1 X7M      -0.108000
     27 C35        -20.3410   -33.7470    -8.5280 ca         1 X7M      -0.108000
     28 C36        -20.3810   -34.5930    -9.6490 ca         1 X7M      -0.112000
     29 C37        -19.5000   -35.6850    -9.7340 ca         1 X7M      -0.108000
     30 C38        -18.5830   -35.9320    -8.6980 ca         1 X7M      -0.108000
     31 N08        -15.5500   -34.8250    -7.8790 ns         1 X7M      -0.511900
     32 N28        -20.5520   -30.0350    -9.8130 nb         1 X7M      -0.665000
     33 O05        -14.9510   -34.8280   -10.0040 os         1 X7M      -0.488100
     34 O07        -16.3090   -33.1240    -9.2110 o          1 X7M      -0.524000
     35 O21        -16.6540   -30.8090    -4.5010 o          1 X7M      -0.613100
     36 S11        -13.8780   -33.3760    -5.5500 ss         1 X7M      -0.399000
     37 H1         -12.9210   -30.6020    -4.9960 hc         1 X7M       0.066200
     38 H2         -13.7900   -30.1750    -3.5370 hc         1 X7M       0.066200
     39 H3          -9.5980   -33.4400    -1.0120 ha         1 X7M       0.111000
     40 H4         -15.8320   -34.4080    -4.4940 h1         1 X7M       0.076700
     41 H5         -14.8720   -35.6040    -5.3850 h1         1 X7M       0.076700
     42 H6         -14.9300   -32.4150    -3.5700 h1         1 X7M       0.095700
     43 H7         -16.9620   -33.6310   -11.6100 hc         1 X7M       0.049478
     44 H8         -16.2980   -34.3500   -13.0770 hc         1 X7M       0.049478
     45 H9         -16.8340   -35.3970   -11.7480 hc         1 X7M       0.049478
     46 H10        -14.8920   -32.2180   -11.1160 hc         1 X7M       0.049478
     47 H11        -13.3040   -32.9890   -10.9180 hc         1 X7M       0.049478
     48 H12        -14.0060   -32.7780   -12.5330 hc         1 X7M       0.049478
     49 H13        -16.5660   -33.4290    -6.7010 h1         1 X7M       0.086700
     50 H14        -14.4570   -36.4700   -11.9760 hc         1 X7M       0.049478
     51 H15        -13.9150   -35.2510   -13.1480 hc         1 X7M       0.049478
     52 H16        -13.0180   -35.4870   -11.6350 hc         1 X7M       0.049478
     53 H17        -10.8260   -31.8010    -4.8090 ha         1 X7M       0.114000
     54 H18         -9.1040   -32.9020    -3.3960 ha         1 X7M       0.112000
     55 H19        -11.8230   -32.8690    -0.0430 ha         1 X7M       0.112000
     56 H20        -13.5500   -31.7640    -1.4480 ha         1 X7M       0.114000
     57 H21        -17.0440   -29.5140    -6.7220 h1         1 X7M       0.053200
     58 H22        -17.3540   -31.0270    -7.6060 h1         1 X7M       0.053200
     59 H23        -15.5090   -30.4790    -9.1990 hc         1 X7M       0.054200
     60 H24        -15.1140   -29.0330    -8.2770 hc         1 X7M       0.054200
     61 H25        -16.4090   -28.4480   -10.2890 hc         1 X7M       0.051700
     62 H26        -17.2660   -27.9920    -8.8310 hc         1 X7M       0.051700
     63 H27        -19.6020   -28.5550    -8.7090 h4         1 X7M       0.016100
     64 H28        -21.2990   -31.5760   -10.9960 h4         1 X7M       0.015100
     65 H29        -19.0740   -32.2360   -11.9290 ha         1 X7M       0.120000
     66 H30        -17.0190   -30.9790   -11.2120 ha         1 X7M       0.139000
     67 H31        -17.9780   -35.0890    -5.4910 hc         1 X7M       0.056200
     68 H32        -17.2480   -36.3880    -6.4150 hc         1 X7M       0.056200
     69 H33        -19.3880   -33.3230    -6.6360 ha         1 X7M       0.111500
     70 H34        -21.0210   -32.9010    -8.4590 ha         1 X7M       0.117000
     71 H35        -21.0920   -34.4030   -10.4500 ha         1 X7M       0.114000
     72 H36        -19.5280   -36.3390   -10.6030 ha         1 X7M       0.117000
     73 H37        -17.9000   -36.7750    -8.7750 ha         1 X7M       0.111500
     74 H38        -14.9700   -35.6520    -7.9060 hn         1 X7M       0.319500
     75 H39        -14.7720   -31.4120    -6.9500 hn         1 X7M       0.349500
     76 N22        -15.5810   -31.0010    -6.4980 ns         1 X7M      -0.497900
     77 C10        -15.2820   -34.5870    -5.4270 c3         1 X7M       0.025600
@<TRIPOS>BOND
     1     1     4 1   
     2     1     5 1   
     3     1    37 1   
     4     1    38 1   
     5     2    13 ar  
     6     2    14 ar  
     7     2    39 1   
     8     3     4 1   
     9     3    35 2   
    10     3    76 1   
    11     4    36 1   
    12     4    42 1   
    13     5    12 ar  
    14     5    15 ar  
    15     6     7 1   
    16     6     8 1   
    17     6    11 1   
    18     6    33 1   
    19     7    43 1   
    20     7    44 1   
    21     7    45 1   
    22     8    46 1   
    23     8    47 1   
    24     8    48 1   
    25     9    31 1   
    26     9    33 1   
    27     9    34 2   
    28    10    24 1   
    29    10    31 1   
    30    10    49 1   
    31    10    77 1   
    32    11    50 1   
    33    11    51 1   
    34    11    52 1   
    35    12    13 ar  
    36    12    53 1   
    37    13    54 1   
    38    14    15 ar  
    39    14    55 1   
    40    15    56 1   
    41    16    17 1   
    42    16    57 1   
    43    16    58 1   
    44    16    76 1   
    45    17    18 1   
    46    17    59 1   
    47    17    60 1   
    48    18    19 1   
    49    18    61 1   
    50    18    62 1   
    51    19    20 ar  
    52    19    23 ar  
    53    20    32 ar  
    54    20    63 1   
    55    21    22 ar  
    56    21    32 ar  
    57    21    64 1   
    58    22    23 ar  
    59    22    65 1   
    60    23    66 1   
    61    24    25 1   
    62    24    67 1   
    63    24    68 1   
    64    25    26 ar  
    65    25    30 ar  
    66    26    27 ar  
    67    26    69 1   
    68    27    28 ar  
    69    27    70 1   
    70    28    29 ar  
    71    28    71 1   
    72    29    30 ar  
    73    29    72 1   
    74    30    73 1   
    75    31    74 1   
    76    36    77 1   
    77    40    77 1   
    78    41    77 1   
    79    75    76 1   
@<TRIPOS>SUBSTRUCTURE
     1 X7M         1 TEMP              0 ****  ****    0 ROOT
