@<TRIPOS>MOLECULE
X7M
   77    79     1     0     0
SMALL
abcg2


@<TRIPOS>ATOM
      1 C13        -13.3490   -31.1570    -4.1750 c3         1 X7M      -0.012100
      2 C17        -10.1930   -33.2340    -2.1210 ca         1 X7M      -0.108000
      3 C20        -15.7290   -31.1490    -4.9060 c          1 X7M       0.592100
      4 C12        -14.5960   -32.0340    -4.3880 c3         1 X7M      -0.014700
      5 C14        -12.2370   -31.8730    -3.4600 ca         1 X7M      -0.084300
      6 C02        -15.0530   -34.9360   -10.9740 c3         1 X7M       0.222000
      7 C03        -15.4340   -36.3750   -10.6510 c3         1 X7M      -0.113100
      8 C04        -16.2790   -34.1290   -11.3790 c3         1 X7M      -0.113100
      9 C06        -15.1020   -33.7460    -8.8440 c          1 X7M       0.670100
     10 C09        -16.4420   -34.2390    -6.8280 c3         1 X7M       0.123700
     11 C01        -13.9990   -34.9050   -12.0700 c3         1 X7M      -0.113100
     12 C15        -11.1120   -32.3170    -4.1470 ca         1 X7M      -0.098000
     13 C16        -10.0950   -32.9930    -3.4850 ca         1 X7M      -0.110500
     14 C18        -11.3120   -32.7920    -1.4250 ca         1 X7M      -0.110500
     15 C19        -12.3230   -32.1160    -2.0910 ca         1 X7M      -0.098000
     16 C23        -16.7610   -30.1690    -6.9210 c3         1 X7M       0.102000
     17 C24        -16.1090   -29.1310    -7.8250 c3         1 X7M      -0.091400
     18 C25        -17.1220   -28.3080    -8.6130 c3         1 X7M      -0.023100
     19 C26        -17.9770   -29.0750    -9.5890 ca         1 X7M      -0.127300
     20 C27        -19.2660   -28.6330    -9.8790 ca         1 X7M       0.329900
     21 C29        -19.6300   -30.2650   -11.4160 ca         1 X7M       0.320900
     22 C30        -18.3730   -30.8070   -11.1990 ca         1 X7M      -0.166000
     23 C31        -17.5370   -30.2050   -10.2720 ca         1 X7M      -0.071000
     24 C32        -17.7230   -35.0800    -6.7890 c3         1 X7M      -0.046100
     25 C33        -18.5430   -34.9500    -8.0430 ca         1 X7M      -0.080300
     26 C34        -19.0940   -33.7230    -8.4070 ca         1 X7M      -0.108000
     27 C35        -19.8510   -33.5970    -9.5610 ca         1 X7M      -0.108000
     28 C36        -20.0690   -34.7000   -10.3780 ca         1 X7M      -0.112000
     29 C37        -19.5260   -35.9280   -10.0260 ca         1 X7M      -0.108000
     30 C38        -18.7710   -36.0490    -8.8660 ca         1 X7M      -0.108000
     31 N08        -15.6270   -34.6130    -7.9620 ns         1 X7M      -0.511900
     32 N28        -20.0760   -29.1980   -10.7640 nb         1 X7M      -0.665000
     33 O05        -14.3860   -34.3250    -9.8280 os         1 X7M      -0.488100
     34 O07        -15.1920   -32.5370    -8.7710 o          1 X7M      -0.524000
     35 O21        -16.4850   -30.6160    -4.1040 o          1 X7M      -0.613100
     36 S11        -14.1300   -33.4320    -5.4530 ss         1 X7M      -0.399000
     37 H1         -12.9990   -30.7820    -5.1390 hc         1 X7M       0.066200
     38 H2         -13.6590   -30.2850    -3.5930 hc         1 X7M       0.066200
     39 H3          -9.4010   -33.7590    -1.6030 ha         1 X7M       0.111000
     40 H4         -16.3000   -34.1210    -4.6700 h1         1 X7M       0.076700
     41 H5         -15.3930   -35.4420    -5.3800 h1         1 X7M       0.076700
     42 H6         -14.9210   -32.4280    -3.4230 h1         1 X7M       0.095700
     43 H7         -16.2470   -36.4320    -9.9270 hc         1 X7M       0.049478
     44 H8         -15.7820   -36.8760   -11.5550 hc         1 X7M       0.049478
     45 H9         -14.5780   -36.9330   -10.2680 hc         1 X7M       0.049478
     46 H10        -17.0510   -34.1270   -10.6070 hc         1 X7M       0.049478
     47 H11        -16.0170   -33.0960   -11.6110 hc         1 X7M       0.049478
     48 H12        -16.7220   -34.5720   -12.2710 hc         1 X7M       0.049478
     49 H13        -16.7220   -33.1950    -6.9570 h1         1 X7M       0.086700
     50 H14        -13.1060   -35.4570   -11.7720 hc         1 X7M       0.049478
     51 H15        -14.3880   -35.3670   -12.9770 hc         1 X7M       0.049478
     52 H16        -13.7080   -33.8820   -12.3110 hc         1 X7M       0.049478
     53 H17        -11.0270   -32.1320    -5.2120 ha         1 X7M       0.114000
     54 H18         -9.2270   -33.3320    -4.0350 ha         1 X7M       0.112000
     55 H19        -11.3930   -32.9700    -0.3600 ha         1 X7M       0.112000
     56 H20        -13.1880   -31.7660    -1.5380 ha         1 X7M       0.114000
     57 H21        -17.4020   -29.6810    -6.1880 h1         1 X7M       0.053200
     58 H22        -17.3950   -30.8380    -7.5100 h1         1 X7M       0.053200
     59 H23        -15.4090   -29.6240    -8.5060 hc         1 X7M       0.054200
     60 H24        -15.5110   -28.4530    -7.2140 hc         1 X7M       0.054200
     61 H25        -16.5810   -27.5330    -9.1650 hc         1 X7M       0.051700
     62 H26        -17.7740   -27.7720    -7.9180 hc         1 X7M       0.051700
     63 H27        -19.6600   -27.7650    -9.3560 h4         1 X7M       0.016100
     64 H28        -20.3040   -30.7140   -12.1380 h4         1 X7M       0.015100
     65 H29        -18.0610   -31.6900   -11.7410 ha         1 X7M       0.120000
     66 H30        -16.5590   -30.6270   -10.0770 ha         1 X7M       0.139000
     67 H31        -18.3080   -34.7570    -5.9230 hc         1 X7M       0.056200
     68 H32        -17.4680   -36.1290    -6.6140 hc         1 X7M       0.056200
     69 H33        -18.9360   -32.8530    -7.7780 ha         1 X7M       0.111500
     70 H34        -20.2700   -32.6350    -9.8250 ha         1 X7M       0.117000
     71 H35        -20.6600   -34.6030   -11.2790 ha         1 X7M       0.114000
     72 H36        -19.6900   -36.7950   -10.6520 ha         1 X7M       0.117000
     73 H37        -18.3610   -37.0140    -8.5920 ha         1 X7M       0.111500
     74 H38        -15.3860   -35.5880    -8.0550 hn         1 X7M       0.319500
     75 H39        -15.1660   -31.5200    -6.8160 hn         1 X7M       0.349500
     76 N22        -15.7700   -30.9600    -6.2270 ns         1 X7M      -0.497900
     77 C10        -15.6710   -34.3950    -5.5190 c3         1 X7M       0.025600
@<TRIPOS>BOND
     1     1     4 1   
     2     1     5 1   
     3     1    37 1   
     4     1    38 1   
     5     2    13 ar  
     6     2    14 ar  
     7     2    39 1   
     8     3     4 1   
     9     3    35 2   
    10     3    76 1   
    11     4    36 1   
    12     4    42 1   
    13     5    12 ar  
    14     5    15 ar  
    15     6     7 1   
    16     6     8 1   
    17     6    11 1   
    18     6    33 1   
    19     7    43 1   
    20     7    44 1   
    21     7    45 1   
    22     8    46 1   
    23     8    47 1   
    24     8    48 1   
    25     9    31 1   
    26     9    33 1   
    27     9    34 2   
    28    10    24 1   
    29    10    31 1   
    30    10    49 1   
    31    10    77 1   
    32    11    50 1   
    33    11    51 1   
    34    11    52 1   
    35    12    13 ar  
    36    12    53 1   
    37    13    54 1   
    38    14    15 ar  
    39    14    55 1   
    40    15    56 1   
    41    16    17 1   
    42    16    57 1   
    43    16    58 1   
    44    16    76 1   
    45    17    18 1   
    46    17    59 1   
    47    17    60 1   
    48    18    19 1   
    49    18    61 1   
    50    18    62 1   
    51    19    20 ar  
    52    19    23 ar  
    53    20    32 ar  
    54    20    63 1   
    55    21    22 ar  
    56    21    32 ar  
    57    21    64 1   
    58    22    23 ar  
    59    22    65 1   
    60    23    66 1   
    61    24    25 1   
    62    24    67 1   
    63    24    68 1   
    64    25    26 ar  
    65    25    30 ar  
    66    26    27 ar  
    67    26    69 1   
    68    27    28 ar  
    69    27    70 1   
    70    28    29 ar  
    71    28    71 1   
    72    29    30 ar  
    73    29    72 1   
    74    30    73 1   
    75    31    74 1   
    76    36    77 1   
    77    40    77 1   
    78    41    77 1   
    79    75    76 1   
@<TRIPOS>SUBSTRUCTURE
     1 X7M         1 TEMP              0 ****  ****    0 ROOT
