@<TRIPOS>MOLECULE
X7N
   62    65     1     0     0
SMALL
abcg2


@<TRIPOS>ATOM
      1 C1         120.8360   166.3840   145.3670 c3         1 X7N      -0.038800
      2 C13        124.9630   172.7570   148.4080 ca         1 X7N      -0.097000
      3 C14        125.7960   172.2960   147.3970 ca         1 X7N      -0.086000
      4 C15        125.3510   171.3370   146.5010 ca         1 X7N      -0.148000
      5 C17        123.0570   168.4210   143.1610 cc         1 X7N      -0.135000
      6 C18        122.6200   167.4290   142.3160 cd         1 X7N      -0.117000
      7 C19        122.9580   167.2420   140.9020 ca         1 X7N      -0.019000
      8 C2         121.6440   167.0810   144.3270 cd         1 X7N      -0.061300
      9 C20        121.9960   166.9580   139.9240 ca         1 X7N      -0.100000
     10 C21        122.3560   166.8280   138.5880 ca         1 X7N      -0.109500
     11 C22        123.6810   166.9940   138.1970 ca         1 X7N      -0.104000
     12 C23        124.6450   167.2900   139.1560 ca         1 X7N      -0.109500
     13 C24        124.2890   167.4060   140.4940 ca         1 X7N      -0.100000
     14 C26        121.1450   165.3760   142.5660 c3         1 X7N       0.062600
     15 C27        119.6480   165.5180   142.3070 c3         1 X7N      -0.100400
     16 C28        119.0760   164.2360   141.7140 c3         1 X7N       0.169800
     17 C3         122.4360   168.2230   144.4300 cc         1 X7N      -0.247600
     18 C30        117.1330   163.2780   140.5480 c6         1 X7N       0.131300
     19 C31        116.4620   162.1420   141.3430 c6         1 X7N       0.118100
     20 C33        116.8450   163.1430   143.4470 c6         1 X7N       0.118100
     21 C34        116.7980   164.4350   142.6110 c6         1 X7N       0.131300
     22 C4         122.5560   169.0590   145.6260 c          1 X7N       0.656700
     23 C6         124.0560   170.8140   146.5980 ca         1 X7N      -0.012000
     24 C7         123.2100   171.2760   147.6130 ca         1 X7N      -0.090000
     25 C8         123.6750   172.2380   148.5000 ca         1 X7N      -0.160300
     26 C9         122.7790   172.7460   149.5930 c3         1 X7N       0.342300
     27 F10        122.6020   174.0890   149.5220 f          1 X7N      -0.113333
     28 F11        121.5490   172.1950   149.5740 f          1 X7N      -0.113333
     29 F12        123.2930   172.5050   150.8250 f          1 X7N      -0.113333
     30 N25        121.7600   166.6110   143.0470 na         1 X7N       0.026000
     31 N29        117.6430   164.3500   141.4210 n3         1 X7N      -0.715600
     32 N5         123.6720   169.8640   145.6470 ns         1 X7N      -0.150000
     33 O16        121.7310   169.0530   146.5420 o          1 X7N      -0.598100
     34 O32        117.0750   161.9970   142.6200 os         1 X7N      -0.457000
     35 H1         120.8930   165.3010   145.2580 hc         1 X7N       0.060033
     36 H2         121.1950   166.6590   146.3550 hc         1 X7N       0.060033
     37 H3         119.7800   166.6650   145.3110 hc         1 X7N       0.060033
     38 H5         126.8010   172.6870   147.3050 ha         1 X7N       0.119000
     39 H6         126.0070   170.9830   145.7150 ha         1 X7N       0.113000
     40 H7         123.6970   169.2370   142.8650 ha         1 X7N       0.134000
     41 H8         120.9560   166.8620   140.2010 ha         1 X7N       0.116500
     42 H9         121.5950   166.6080   137.8500 ha         1 X7N       0.116000
     43 H10        123.9590   166.8940   137.1550 ha         1 X7N       0.116000
     44 H11        125.6800   167.4200   138.8640 ha         1 X7N       0.116000
     45 H12        125.0470   167.6170   141.2370 ha         1 X7N       0.116500
     46 H13        121.3280   164.5930   143.3020 h1         1 X7N       0.065200
     47 H14        121.6660   165.0850   141.6570 h1         1 X7N       0.065200
     48 H15        119.4650   166.3480   141.6210 hc         1 X7N       0.060200
     49 H16        119.1460   165.7640   143.2430 hc         1 X7N       0.060200
     50 H17        119.3050   163.3910   142.3780 h1         1 X7N       0.039700
     51 H18        119.5820   164.0360   140.7670 h1         1 X7N       0.039700
     52 H19        117.9660   162.8880   139.9630 h1         1 X7N       0.058450
     53 H20        116.4020   163.6930   139.8450 h1         1 X7N       0.058450
     54 H21        115.3890   162.3350   141.4680 h1         1 X7N       0.049950
     55 H22        116.5720   161.1880   140.8280 h1         1 X7N       0.049950
     56 H23        115.9070   163.0230   144.0050 h1         1 X7N       0.049950
     57 H24        117.6680   163.1640   144.1630 h1         1 X7N       0.049950
     58 H25        117.0880   165.2810   143.2320 h1         1 X7N       0.058450
     59 H26        115.7770   164.6260   142.2750 h1         1 X7N       0.058450
     60 H27        122.2130   170.8820   147.6970 ha         1 X7N       0.167000
     61 H29        124.3430   169.7050   144.9110 hn         1 X7N       0.154000
     62 H4         125.3090   173.5050   149.1100 ha         1 X7N       0.129000
@<TRIPOS>BOND
     1     1     8 1   
     2     1    35 1   
     3     1    36 1   
     4     1    37 1   
     5     2     3 ar  
     6     2    25 ar  
     7     2    62 1   
     8     3     4 ar  
     9     3    38 1   
    10     4    23 ar  
    11     4    39 1   
    12     5     6 2   
    13     5    17 1   
    14     5    40 1   
    15     6     7 1   
    16     6    30 1   
    17     7     9 ar  
    18     7    13 ar  
    19     8    17 2   
    20     8    30 1   
    21     9    10 ar  
    22     9    41 1   
    23    10    11 ar  
    24    10    42 1   
    25    11    12 ar  
    26    11    43 1   
    27    12    13 ar  
    28    12    44 1   
    29    13    45 1   
    30    14    15 1   
    31    14    30 1   
    32    14    46 1   
    33    14    47 1   
    34    15    16 1   
    35    15    48 1   
    36    15    49 1   
    37    16    31 1   
    38    16    50 1   
    39    16    51 1   
    40    17    22 1   
    41    18    19 1   
    42    18    31 1   
    43    18    52 1   
    44    18    53 1   
    45    19    34 1   
    46    19    54 1   
    47    19    55 1   
    48    20    21 1   
    49    20    34 1   
    50    20    56 1   
    51    20    57 1   
    52    21    31 1   
    53    21    58 1   
    54    21    59 1   
    55    22    32 1   
    56    22    33 2   
    57    23    24 ar  
    58    23    32 1   
    59    24    25 ar  
    60    24    60 1   
    61    25    26 1   
    62    26    27 1   
    63    26    28 1   
    64    26    29 1   
    65    32    61 1   
@<TRIPOS>SUBSTRUCTURE
     1 X7N         1 TEMP              0 ****  ****    0 ROOT
