@<TRIPOS>MOLECULE
X7N
   62    65     1     0     0
SMALL
No Charge or Current Charge


@<TRIPOS>ATOM
      1 C1         120.5910   166.4550   145.5730 c3         1 X7N      -0.038800
      2 C13        125.0370   173.1220   148.0250 ca         1 X7N      -0.097000
      3 C14        125.3940   172.9890   146.6750 ca         1 X7N      -0.086000
      4 C15        124.8460   171.9550   145.8990 ca         1 X7N      -0.148000
      5 C17        122.9470   168.3220   143.3510 cc         1 X7N      -0.135000
      6 C18        122.5000   167.3920   142.4490 cd         1 X7N      -0.117000
      7 C19        123.0070   167.2450   141.0550 ca         1 X7N      -0.019000
      8 C2         121.4730   167.0630   144.5000 cd         1 X7N      -0.061300
      9 C20        122.2890   166.5610   140.0450 ca         1 X7N      -0.100000
     10 C21        122.7970   166.4520   138.7390 ca         1 X7N      -0.109500
     11 C22        124.0310   167.0310   138.4110 ca         1 X7N      -0.104000
     12 C23        124.7500   167.7280   139.3910 ca         1 X7N      -0.109500
     13 C24        124.2400   167.8390   140.6960 ca         1 X7N      -0.100000
     14 C26        121.0240   165.2860   142.7270 c3         1 X7N       0.062600
     15 C27        119.5480   165.4140   142.2810 c3         1 X7N      -0.100400
     16 C28        118.9830   164.0860   141.7330 c3         1 X7N       0.169800
     17 C3         122.3100   168.1480   144.5990 cc         1 X7N      -0.247600
     18 C30        117.2100   162.9500   140.4030 c6         1 X7N       0.131300
     19 C31        116.7020   161.8030   141.3450 c6         1 X7N       0.118100
     20 C33        116.1020   163.4100   143.0510 c6         1 X7N       0.118100
     21 C34        116.5380   164.5790   142.1000 c6         1 X7N       0.131300
     22 C4         122.5180   168.9920   145.8160 c          1 X7N       0.656700
     23 C6         123.9380   171.0410   146.4630 ca         1 X7N      -0.012000
     24 C7         123.5840   171.1790   147.8250 ca         1 X7N      -0.090000
     25 C8         124.1230   172.2210   148.6130 ca         1 X7N      -0.160300
     26 C9         123.7290   172.3440   150.0910 c3         1 X7N       0.342300
     27 F10        123.9810   173.5720   150.6010 f          1 X7N      -0.113333
     28 F11        122.4100   172.1110   150.2840 f          1 X7N      -0.113333
     29 F12        124.4030   171.4550   150.8540 f          1 X7N      -0.113333
     30 N25        121.6140   166.5620   143.1850 na         1 X7N       0.026000
     31 N29        117.6240   164.1940   141.1340 n3         1 X7N      -0.715600
     32 N5         123.4320   170.0180   145.6130 ns         1 X7N      -0.150000
     33 O16        121.9410   168.7970   146.8790 o          1 X7N      -0.598100
     34 O32        116.7940   162.1740   142.7420 os         1 X7N      -0.457000
     35 H1         120.0260   165.5810   145.2310 hc         1 X7N       0.060033
     36 H2         121.1910   166.1330   146.4320 hc         1 X7N       0.060033
     37 H3         119.8590   167.1870   145.9340 hc         1 X7N       0.060033
     38 H5         126.0990   173.6870   146.2290 ha         1 X7N       0.119000
     39 H6         125.1330   171.8650   144.8540 ha         1 X7N       0.113000
     40 H7         123.6650   169.1080   143.1380 ha         1 X7N       0.134000
     41 H8         121.3110   166.1420   140.2370 ha         1 X7N       0.116500
     42 H9         122.2260   165.9250   137.9770 ha         1 X7N       0.116000
     43 H10        124.4240   166.9460   137.3990 ha         1 X7N       0.116000
     44 H11        125.7060   168.1830   139.1410 ha         1 X7N       0.116000
     45 H12        124.8330   168.3730   141.4320 ha         1 X7N       0.116500
     46 H13        121.0880   164.5610   143.5470 h1         1 X7N       0.065200
     47 H14        121.6370   164.8710   141.9200 h1         1 X7N       0.065200
     48 H15        119.4580   166.1880   141.5110 hc         1 X7N       0.060200
     49 H16        118.9490   165.7490   143.1330 hc         1 X7N       0.060200
     50 H17        119.0010   163.3420   142.5400 h1         1 X7N       0.039700
     51 H18        119.6810   163.7290   140.9620 h1         1 X7N       0.039700
     52 H19        118.0360   162.5700   139.7840 h1         1 X7N       0.058450
     53 H20        116.3960   163.1910   139.7030 h1         1 X7N       0.058450
     54 H21        115.6550   161.5650   141.1060 h1         1 X7N       0.049950
     55 H22        117.2990   160.8950   141.1790 h1         1 X7N       0.049950
     56 H23        115.0180   163.2490   142.9670 h1         1 X7N       0.049950
     57 H24        116.3210   163.6820   144.0940 h1         1 X7N       0.049950
     58 H25        116.8180   165.4540   142.7030 h1         1 X7N       0.058450
     59 H26        115.6480   164.8890   141.5330 h1         1 X7N       0.058450
     60 H27        122.8930   170.4840   148.2910 ha         1 X7N       0.167000
     61 H29        123.8130   170.0440   144.6780 hn         1 X7N       0.154000
     62 H4         125.4790   173.9260   148.6100 ha         1 X7N       0.129000
@<TRIPOS>BOND
     1     1     8 1   
     2     1    35 1   
     3     1    36 1   
     4     1    37 1   
     5     2     3 ar  
     6     2    25 ar  
     7     2    62 1   
     8     3     4 ar  
     9     3    38 1   
    10     4    23 ar  
    11     4    39 1   
    12     5     6 2   
    13     5    17 1   
    14     5    40 1   
    15     6     7 1   
    16     6    30 1   
    17     7     9 ar  
    18     7    13 ar  
    19     8    17 2   
    20     8    30 1   
    21     9    10 ar  
    22     9    41 1   
    23    10    11 ar  
    24    10    42 1   
    25    11    12 ar  
    26    11    43 1   
    27    12    13 ar  
    28    12    44 1   
    29    13    45 1   
    30    14    15 1   
    31    14    30 1   
    32    14    46 1   
    33    14    47 1   
    34    15    16 1   
    35    15    48 1   
    36    15    49 1   
    37    16    31 1   
    38    16    50 1   
    39    16    51 1   
    40    17    22 1   
    41    18    19 1   
    42    18    31 1   
    43    18    52 1   
    44    18    53 1   
    45    19    34 1   
    46    19    54 1   
    47    19    55 1   
    48    20    21 1   
    49    20    34 1   
    50    20    56 1   
    51    20    57 1   
    52    21    31 1   
    53    21    58 1   
    54    21    59 1   
    55    22    32 1   
    56    22    33 2   
    57    23    24 ar  
    58    23    32 1   
    59    24    25 ar  
    60    24    60 1   
    61    25    26 1   
    62    26    27 1   
    63    26    28 1   
    64    26    29 1   
    65    32    61 1   
@<TRIPOS>SUBSTRUCTURE
     1 X7N         1 TEMP              0 ****  ****    0 ROOT
