@<TRIPOS>MOLECULE
X7O
   21    21     1     0     0
SMALL
No Charge or Current Charge


@<TRIPOS>ATOM
      1 C1          -0.3090     0.7760     0.7500 c          1 X7O       0.697000
      2 C2          -1.7100     0.5840     1.4920 c5         1 X7O       0.031500
      3 C3          -1.5760     0.9610     2.9990 c5         1 X7O      -0.057700
      4 C4          -1.6940     2.5110     2.8920 c5         1 X7O      -0.073400
      5 C5          -2.6370     2.7430     1.6670 c5         1 X7O       0.377700
      6 C6          -2.6260     0.2880     3.9210 c3         1 X7O      -0.073100
      7 O1          -0.2290     1.5380    -0.2070 o          1 X7O      -0.734500
      8 N1          -2.8490     1.4680     1.0380 n7         1 X7O      -0.904400
      9 N2          -4.0080     2.8190     1.9770 n8         1 X7O      -0.999200
     10 O2           0.6540     0.1110     1.1110 o          1 X7O      -0.734500
     11 HC2         -1.9740    -0.4760     1.3710 h1         1 X7O       0.049700
     12 HC3         -0.5990     0.6710     3.4020 hc         1 X7O       0.070700
     13 HC41        -2.0680     2.9710     3.8140 hc         1 X7O       0.039200
     14 HC42        -0.7130     2.9600     2.6980 hc         1 X7O       0.039200
     15 HC5         -2.2490     3.5090     0.9780 h2         1 X7O       0.050700
     16 HC61        -2.5130     0.6320     4.9560 hc         1 X7O       0.015367
     17 HC62        -3.6540     0.5050     3.6090 hc         1 X7O       0.015367
     18 HC63        -2.5030    -0.8010     3.9200 hc         1 X7O       0.015367
     19 HN1         -2.7840     1.5940     0.0210 hn         1 X7O       0.419000
     20 HN21        -4.4850     2.6690     1.0900 hn         1 X7O       0.379000
     21 HN22        -4.1630     1.9390     2.4680 hn         1 X7O       0.379000
@<TRIPOS>BOND
     1     1     2 1   
     2     1     7 1   
     3     1    10 1   
     4     2     3 1   
     5     2     8 1   
     6     2    11 1   
     7     3     4 1   
     8     3     6 1   
     9     3    12 1   
    10     4     5 1   
    11     4    13 1   
    12     4    14 1   
    13     5     8 1   
    14     5     9 1   
    15     5    15 1   
    16     6    16 1   
    17     6    17 1   
    18     6    18 1   
    19     8    19 1   
    20     9    20 1   
    21     9    21 1   
@<TRIPOS>SUBSTRUCTURE
     1 X7O         1 TEMP              0 ****  ****    0 ROOT
