@<TRIPOS>MOLECULE
X7O
   21    21     1     0     0
SMALL
bcc


@<TRIPOS>ATOM
      1 C1          -0.2770     0.7450     0.7620 c          1 X7O       0.907600
      2 C2          -1.6060     0.5060     1.5190 c5         1 X7O       0.031500
      3 C3          -1.5190     0.9420     2.9860 c5         1 X7O      -0.057700
      4 C4          -1.7930     2.4450     2.8690 c5         1 X7O      -0.073400
      5 C5          -2.7100     2.6030     1.6390 c5         1 X7O       0.377700
      6 C6          -2.5400     0.2290     3.8660 c3         1 X7O      -0.073100
      7 O1          -0.3080     1.4880    -0.2400 o          1 X7O      -0.839800
      8 N1          -2.7380     1.2710     1.0280 n7         1 X7O      -0.849200
      9 N2          -4.0180     3.1200     2.0000 n8         1 X7O      -0.888800
     10 O2           0.7220     0.1480     1.2140 o          1 X7O      -0.839800
     11 HC2         -1.8220    -0.5700     1.4560 h1         1 X7O       0.049700
     12 HC3         -0.5220     0.7450     3.3800 hc         1 X7O       0.070700
     13 HC41        -2.2510     2.8640     3.7670 hc         1 X7O       0.039200
     14 HC42        -0.8600     2.9880     2.7090 hc         1 X7O       0.039200
     15 HC5         -2.2750     3.3340     0.9500 h2         1 X7O       0.050700
     16 HC61        -2.4880     0.5860     4.8960 hc         1 X7O       0.015367
     17 HC62        -3.5610     0.3880     3.5120 hc         1 X7O       0.015367
     18 HC63        -2.3620    -0.8480     3.8810 hc         1 X7O       0.015367
     19 HN1         -2.6850     1.3510     0.0210 hn         1 X7O       0.363800
     20 HN21        -4.5880     3.1950     1.1650 hn         1 X7O       0.323800
     21 HN22        -4.4890     2.4410     2.5880 hn         1 X7O       0.323800
@<TRIPOS>BOND
     1     1     2 1   
     2     1     7 1   
     3     1    10 1   
     4     2     3 1   
     5     2     8 1   
     6     2    11 1   
     7     3     4 1   
     8     3     6 1   
     9     3    12 1   
    10     4     5 1   
    11     4    13 1   
    12     4    14 1   
    13     5     8 1   
    14     5     9 1   
    15     5    15 1   
    16     6    16 1   
    17     6    17 1   
    18     6    18 1   
    19     8    19 1   
    20     9    20 1   
    21     9    21 1   
@<TRIPOS>SUBSTRUCTURE
     1 X7O         1 TEMP              0 ****  ****    0 ROOT
