@<TRIPOS>MOLECULE
X7R
   64    67     1     0     0
SMALL
abcg2


@<TRIPOS>ATOM
      1 C14        134.7040   170.6970   185.0540 ca         1 X7R      -0.266000
      2 C11        134.5530   174.3430   186.0720 c          1 X7R       0.663700
      3 C10        134.7970   172.8860   186.1190 ca         1 X7R      -0.246600
      4 C12        132.7370   177.0480   186.8320 c3         1 X7R      -0.370100
      5 C13        134.4450   172.0520   185.0600 ca         1 X7R       0.268000
      6 C01        130.2880   163.9160   183.8420 c3         1 X7R      -0.091100
      7 C02        130.6290   164.6510   185.1430 c3         1 X7R       0.228800
      8 C03        132.2030   166.0800   183.9200 c6         1 X7R       0.166300
      9 C04        133.6240   166.6310   183.9050 c6         1 X7R      -0.070400
     10 C05        133.9170   167.4600   185.1540 c6         1 X7R      -0.096700
     11 C06        135.3630   167.9300   185.1400 c3         1 X7R       0.162600
     12 C07        135.3500   170.1230   186.1490 ca         1 X7R       0.210100
     13 C08        135.7160   170.9200   187.2590 ca         1 X7R      -0.104300
     14 C09        135.4380   172.2720   187.2090 ca         1 X7R      -0.016000
     15 C15        136.3970   170.2790   188.4160 cx         1 X7R      -0.073400
     16 C16        135.5800   169.6670   189.5320 cx         1 X7R      -0.122900
     17 C17        136.4020   170.9030   189.7820 cx         1 X7R      -0.122900
     18 C18        133.5810   166.6400   186.3980 c6         1 X7R      -0.070400
     19 C19        132.1630   166.0910   186.3230 c6         1 X7R       0.166300
     20 C20        130.5340   163.6640   186.2940 ca         1 X7R      -0.068300
     21 C21        129.4230   163.6680   187.1310 ca         1 X7R      -0.091500
     22 C22        129.3210   162.7190   188.1380 ca         1 X7R       0.126500
     23 C23        130.3000   161.7600   188.3470 ca         1 X7R      -0.094000
     24 C24        131.4010   161.7800   187.4990 ca         1 X7R       0.126500
     25 C25        131.5330   162.7090   186.4820 ca         1 X7R      -0.091500
     26 F01        133.7890   172.5490   183.9910 f          1 X7R      -0.158000
     27 N01        131.9560   165.2790   185.1190 n3         1 X7R      -0.724600
     28 N02        134.3890   174.9410   187.3170 ns         1 X7R      -0.599300
     29 O01        135.6710   168.8200   186.2300 os         1 X7R      -0.336100
     30 O02        134.5040   175.0010   185.0470 o          1 X7R      -0.543100
     31 O03        134.1630   176.6990   189.0150 o          1 X7R      -0.533000
     32 O04        135.3500   177.2520   186.9050 o          1 X7R      -0.533000
     33 S01        134.2690   176.5860   187.5820 s6         1 X7R       1.250800
     34 CL01       127.9170   162.7330   189.1850 cl         1 X7R      -0.203000
     35 CL02       132.6600   160.5840   187.7340 cl         1 X7R      -0.203000
     36 H1         134.3840   170.1190   184.2010 ha         1 X7R       0.143000
     37 H2         131.9380   176.4990   187.3260 h1         1 X7R       0.110033
     38 H3         132.6280   178.1210   186.9860 h1         1 X7R       0.110033
     39 H4         132.7930   176.8080   185.7730 h1         1 X7R       0.110033
     40 H6         130.1330   164.6060   183.0150 hc         1 X7R       0.045367
     41 H7         131.0840   163.2170   183.5760 hc         1 X7R       0.045367
     42 H8         129.8540   165.4190   185.3060 h1         1 X7R       0.028700
     43 H9         131.4860   166.9180   183.8530 h1         1 X7R       0.036450
     44 H10        132.0600   165.4600   183.0380 h1         1 X7R       0.036450
     45 H11        134.3290   165.7940   183.8470 hc         1 X7R       0.052700
     46 H12        133.7610   167.2360   183.0060 hc         1 X7R       0.052700
     47 H13        133.2610   168.3370   185.1360 hc         1 X7R       0.055700
     48 H14        136.0340   167.0840   185.2880 h1         1 X7R       0.063200
     49 H15        135.6210   168.4070   184.1930 h1         1 X7R       0.063200
     50 H16        135.7660   172.8870   188.0340 ha         1 X7R       0.126000
     51 H17        137.2840   169.7170   188.1500 hc         1 X7R       0.094700
     52 H18        134.5060   169.7870   189.4770 hc         1 X7R       0.073200
     53 H19        135.9140   168.7260   189.9460 hc         1 X7R       0.073200
     54 H20        137.3050   170.8060   190.3700 hc         1 X7R       0.073200
     55 H21        135.8720   171.8340   189.9280 hc         1 X7R       0.073200
     56 H22        134.2860   165.8060   186.4820 hc         1 X7R       0.052700
     57 H23        133.6840   167.2490   187.2990 hc         1 X7R       0.052700
     58 H24        131.4430   166.9280   186.3480 h1         1 X7R       0.036450
     59 H25        131.9640   165.4740   187.1980 h1         1 X7R       0.036450
     60 H26        128.6440   164.4080   187.0000 ha         1 X7R       0.140000
     61 H27        130.2130   161.0290   189.1370 ha         1 X7R       0.146000
     62 H28        132.4060   162.7070   185.8450 ha         1 X7R       0.140000
     63 H30        134.2150   174.3790   188.1390 hn         1 X7R       0.344500
     64 H5         129.3680   163.3490   183.9820 hc         1 X7R       0.045367
@<TRIPOS>BOND
     1     1     5 ar  
     2     1    12 ar  
     3     1    36 1   
     4     2     3 1   
     5     2    28 1   
     6     2    30 2   
     7     3     5 ar  
     8     3    14 ar  
     9     4    33 1   
    10     4    37 1   
    11     4    38 1   
    12     4    39 1   
    13     5    26 1   
    14     6     7 1   
    15     6    40 1   
    16     6    41 1   
    17     6    64 1   
    18     7    20 1   
    19     7    27 1   
    20     7    42 1   
    21     8     9 1   
    22     8    27 1   
    23     8    43 1   
    24     8    44 1   
    25     9    10 1   
    26     9    45 1   
    27     9    46 1   
    28    10    11 1   
    29    10    18 1   
    30    10    47 1   
    31    11    29 1   
    32    11    48 1   
    33    11    49 1   
    34    12    13 ar  
    35    12    29 1   
    36    13    14 ar  
    37    13    15 1   
    38    14    50 1   
    39    15    16 1   
    40    15    17 1   
    41    15    51 1   
    42    16    17 1   
    43    16    52 1   
    44    16    53 1   
    45    17    54 1   
    46    17    55 1   
    47    18    19 1   
    48    18    56 1   
    49    18    57 1   
    50    19    27 1   
    51    19    58 1   
    52    19    59 1   
    53    20    21 ar  
    54    20    25 ar  
    55    21    22 ar  
    56    21    60 1   
    57    22    23 ar  
    58    22    34 1   
    59    23    24 ar  
    60    23    61 1   
    61    24    25 ar  
    62    24    35 1   
    63    25    62 1   
    64    28    33 1   
    65    28    63 1   
    66    31    33 2   
    67    32    33 2   
@<TRIPOS>SUBSTRUCTURE
     1 X7R         1 TEMP              0 ****  ****    0 ROOT
