@<TRIPOS>MOLECULE
X7R
   64    67     1     0     0
SMALL
No Charge or Current Charge


@<TRIPOS>ATOM
      1 C14        135.0190   170.7120   184.8050 ca         1 X7R      -0.266000
      2 C11        134.3350   174.2430   186.1330 c          1 X7R       0.663700
      3 C10        134.7720   172.7970   186.0630 ca         1 X7R      -0.246600
      4 C12        132.1250   176.4780   187.4610 c3         1 X7R      -0.370100
      5 C13        134.6050   172.0470   184.8780 ca         1 X7R       0.268000
      6 C01        130.3780   163.8130   183.9200 c3         1 X7R      -0.091100
      7 C02        130.7300   164.7680   185.0860 c3         1 X7R       0.228800
      8 C03        132.4140   166.0350   183.7360 c6         1 X7R       0.166300
      9 C04        133.8880   166.5050   183.6610 c6         1 X7R      -0.070400
     10 C05        134.2540   167.4160   184.8580 c6         1 X7R      -0.096700
     11 C06        135.7490   167.8600   184.7990 c3         1 X7R       0.162600
     12 C07        135.6060   170.0830   185.9180 ca         1 X7R       0.210100
     13 C08        135.7860   170.8140   187.1110 ca         1 X7R      -0.104300
     14 C09        135.3780   172.1610   187.1740 ca         1 X7R      -0.016000
     15 C15        136.4350   170.1710   188.3100 cx         1 X7R      -0.073400
     16 C16        135.7270   169.0940   189.1000 cx         1 X7R      -0.122900
     17 C17        135.9800   170.4420   189.7280 cx         1 X7R      -0.122900
     18 C18        133.9090   166.6740   186.1750 c6         1 X7R      -0.070400
     19 C19        132.4350   166.2040   186.1860 c6         1 X7R       0.166300
     20 C20        130.4680   164.0440   186.4100 ca         1 X7R      -0.068300
     21 C21        129.4210   164.4620   187.2580 ca         1 X7R      -0.091500
     22 C22        129.1880   163.8000   188.4750 ca         1 X7R       0.126500
     23 C23        129.9950   162.7190   188.8600 ca         1 X7R      -0.094000
     24 C24        131.0400   162.2990   188.0220 ca         1 X7R       0.126500
     25 C25        131.2770   162.9560   186.8040 ca         1 X7R      -0.091500
     26 F01        134.0240   172.5810   183.7810 f          1 X7R      -0.158000
     27 N01        132.1150   165.3250   185.0180 n3         1 X7R      -0.724600
     28 N02        134.2110   174.7590   187.3830 ns         1 X7R      -0.599300
     29 O01        136.0470   168.7710   185.8770 os         1 X7R      -0.336100
     30 O02        134.1170   174.9180   185.1400 o          1 X7R      -0.543100
     31 O03        134.0450   176.4240   189.2670 o          1 X7R      -0.533000
     32 O04        134.5970   177.2380   186.9240 o          1 X7R      -0.533000
     33 S01        133.8660   176.3320   187.8150 s6         1 X7R       1.250800
     34 Cl01       127.8790   164.3320   189.5240 cl         1 X7R      -0.203000
     35 Cl02       132.0590   160.9480   188.5010 cl         1 X7R      -0.203000
     36 H1         134.8740   170.1860   183.8680 ha         1 X7R       0.143000
     37 H2         131.6020   175.7210   188.0540 h1         1 X7R       0.110033
     38 H3         131.8180   177.4900   187.7450 h1         1 X7R       0.110033
     39 H4         131.9920   176.3090   186.3870 h1         1 X7R       0.110033
     40 H6         130.2970   164.3530   182.9710 hc         1 X7R       0.045367
     41 H7         131.1360   163.0280   183.8140 hc         1 X7R       0.045367
     42 H8         130.0210   165.6060   185.0260 h1         1 X7R       0.028700
     43 H9         131.7520   166.9060   183.6200 h1         1 X7R       0.036450
     44 H10        132.2400   165.3780   182.8720 h1         1 X7R       0.036450
     45 H11        134.5470   165.6250   183.6410 hc         1 X7R       0.052700
     46 H12        134.0510   167.0400   182.7160 hc         1 X7R       0.052700
     47 H13        133.6370   168.3230   184.7970 hc         1 X7R       0.055700
     48 H14        136.3740   166.9630   184.8930 h1         1 X7R       0.063200
     49 H15        135.9770   168.3080   183.8240 h1         1 X7R       0.063200
     50 H16        135.5640   172.7090   188.0940 ha         1 X7R       0.126000
     51 H17        137.5050   170.0370   188.1640 hc         1 X7R       0.094700
     52 H18        134.7030   168.8530   188.8290 hc         1 X7R       0.073200
     53 H19        136.3190   168.2500   189.4460 hc         1 X7R       0.073200
     54 H20        136.7440   170.5060   190.5000 hc         1 X7R       0.073200
     55 H21        135.1190   171.0860   189.8860 hc         1 X7R       0.073200
     56 H22        134.5680   165.8040   186.3030 hc         1 X7R       0.052700
     57 H23        134.0840   167.3290   187.0380 hc         1 X7R       0.052700
     58 H24        131.7790   167.0870   186.1860 h1         1 X7R       0.036450
     59 H25        132.2640   165.6790   187.1360 h1         1 X7R       0.036450
     60 H26        128.7880   165.2990   186.9760 ha         1 X7R       0.140000
     61 H27        129.8130   162.2100   189.8020 ha         1 X7R       0.146000
     62 H28        132.0940   162.6290   186.1670 ha         1 X7R       0.140000
     63 H30        134.3550   174.1760   188.1870 hn         1 X7R       0.344500
     64 H5         129.4100   163.3320   184.1020 hc         1 X7R       0.045367
@<TRIPOS>BOND
     1     1     5 ar  
     2     1    12 ar  
     3     1    36 1   
     4     2     3 1   
     5     2    28 1   
     6     2    30 2   
     7     3     5 ar  
     8     3    14 ar  
     9     4    33 1   
    10     4    37 1   
    11     4    38 1   
    12     4    39 1   
    13     5    26 1   
    14     6     7 1   
    15     6    40 1   
    16     6    41 1   
    17     6    64 1   
    18     7    20 1   
    19     7    27 1   
    20     7    42 1   
    21     8     9 1   
    22     8    27 1   
    23     8    43 1   
    24     8    44 1   
    25     9    10 1   
    26     9    45 1   
    27     9    46 1   
    28    10    11 1   
    29    10    18 1   
    30    10    47 1   
    31    11    29 1   
    32    11    48 1   
    33    11    49 1   
    34    12    13 ar  
    35    12    29 1   
    36    13    14 ar  
    37    13    15 1   
    38    14    50 1   
    39    15    16 1   
    40    15    17 1   
    41    15    51 1   
    42    16    17 1   
    43    16    52 1   
    44    16    53 1   
    45    17    54 1   
    46    17    55 1   
    47    18    19 1   
    48    18    56 1   
    49    18    57 1   
    50    19    27 1   
    51    19    58 1   
    52    19    59 1   
    53    20    21 ar  
    54    20    25 ar  
    55    21    22 ar  
    56    21    60 1   
    57    22    23 ar  
    58    22    34 1   
    59    23    24 ar  
    60    23    61 1   
    61    24    25 ar  
    62    24    35 1   
    63    25    62 1   
    64    28    33 1   
    65    28    63 1   
    66    31    33 2   
    67    32    33 2   
@<TRIPOS>SUBSTRUCTURE
     1 X7R         1 TEMP              0 ****  ****    0 ROOT
