@<TRIPOS>MOLECULE
X7V
   65    69     1     0     0
SMALL
bcc


@<TRIPOS>ATOM
      1 C10          5.6860     0.1920    19.4980 ca         1 X7V      -0.204600
      2 C11          6.4040    -0.5240    18.5470 ca         1 X7V       0.445200
      3 C13          5.1200     0.2540    16.8360 ca         1 X7V       0.410200
      4 C14          4.3390     1.0080    17.6980 ca         1 X7V      -0.250300
      5 C18          8.0340     3.0420    22.5060 c3         1 X7V       0.164000
      6 C19          7.3830     3.9950    23.5020 c3         1 X7V      -0.106100
      7 C20          9.3660     2.5490    23.0240 ca         1 X7V      -0.095300
      8 C21         10.5460     3.1160    22.5570 ca         1 X7V      -0.111000
      9 C22         11.7740     2.7300    23.0800 ca         1 X7V      -0.128500
     10 C23         11.8320     1.7650    24.0770 ca         1 X7V      -0.128000
     11 C24         10.6560     1.1900    24.5430 ca         1 X7V      -0.128500
     12 C25          9.4330     1.5800    24.0190 ca         1 X7V      -0.111000
     13 C29          8.6410    -1.8780    24.2950 ca         1 X7V      -0.114500
     14 C30          9.8780    -2.0480    23.6720 cp         1 X7V      -0.024000
     15 C31         11.0750    -2.4090    24.4540 cp         1 X7V      -0.043000
     16 C32         12.3240    -1.8730    24.1350 ca         1 X7V      -0.116000
     17 C33         13.4490    -2.2040    24.8750 ca         1 X7V      -0.130500
     18 C34         13.3470    -3.0800    25.9480 ca         1 X7V      -0.122000
     19 O01          4.2650    -1.7430    21.0640 o          1 X7V      -0.562100
     20 C03          5.6680    -3.4670    21.7680 cc         1 X7V       0.168200
     21 C04          6.7640    -4.2680    21.9000 cd         1 X7V      -0.201300
     22 C05          6.2770    -5.5750    22.1630 cd         1 X7V      -0.289300
     23 C06          4.9240    -5.4700    22.1770 cc         1 X7V       0.256600
     24 O07          4.5490    -4.2100    21.9340 os         1 X7V      -0.287800
     25 N08          6.4170    -1.1630    21.4270 n          1 X7V      -0.391000
     26 C09          6.0680     0.1810    20.9550 c3         1 X7V       0.097000
     27 N12          6.1320    -0.5000    17.2490 nb         1 X7V      -0.670000
     28 C15          4.6300     0.9720    19.0520 ca         1 X7V      -0.068000
     29 C16          7.2330     1.1670    21.1540 c          1 X7V       0.662100
     30 N17          7.1070     1.9600    22.2220 ns         1 X7V      -0.568900
     31 O26          8.1520     1.2410    20.3590 o          1 X7V      -0.574100
     32 C27          7.5980    -1.4000    22.1830 ca         1 X7V       0.028600
     33 C28          7.5160    -1.5460    23.5620 ca         1 X7V      -0.119000
     34 C35         12.1110    -3.6220    26.2740 ca         1 X7V      -0.130500
     35 C36         10.9860    -3.2890    25.5340 ca         1 X7V      -0.116000
     36 C37          9.9520    -1.8610    22.2920 ca         1 X7V      -0.114500
     37 C38          8.8270    -1.5430    21.5520 ca         1 X7V      -0.119000
     38 H1           7.2310    -1.1580    18.8470 h4         1 X7V       0.025100
     39 H2           4.9190     0.2570    15.7710 h4         1 X7V       0.017100
     40 H3           3.5180     1.6010    17.3170 ha         1 X7V       0.141000
     41 H4           8.2080     3.5850    21.5740 h1         1 X7V       0.071700
     42 H5           8.0440     4.8390    23.6970 hc         1 X7V       0.045367
     43 H6           6.4420     4.3860    23.1120 hc         1 X7V       0.045367
     44 H7           7.1860     3.4980    24.4540 hc         1 X7V       0.045367
     45 H8          10.5070     3.8680    21.7770 ha         1 X7V       0.129500
     46 H9          12.6850     3.1790    22.7050 ha         1 X7V       0.132000
     47 H10         12.7870     1.4600    24.4840 ha         1 X7V       0.129000
     48 H11         10.6920     0.4340    25.3150 ha         1 X7V       0.132000
     49 H12          8.5250     1.1190    24.3870 ha         1 X7V       0.129500
     50 H13          8.5560    -1.9830    25.3690 ha         1 X7V       0.139000
     51 H14         12.4120    -1.1640    23.3210 ha         1 X7V       0.135000
     52 H15         14.4060    -1.7690    24.6180 ha         1 X7V       0.132000
     53 H16         14.2250    -3.3370    26.5270 ha         1 X7V       0.132000
     54 H17          7.7980    -3.9790    21.8210 ha         1 X7V       0.170000
     55 H18          6.8570    -6.4680    22.3270 ha         1 X7V       0.164000
     56 H19          4.1370    -6.1860    22.3480 h4         1 X7V       0.057100
     57 H20          5.2110     0.5410    21.5340 h1         1 X7V       0.063700
     58 H21          4.0380     1.5450    19.7570 ha         1 X7V       0.132000
     59 H22          6.3090     1.8470    22.8280 hn         1 X7V       0.317500
     60 H23          6.5650    -1.4160    24.0630 ha         1 X7V       0.147500
     61 H24         12.0220    -4.3110    27.1040 ha         1 X7V       0.132000
     62 H25         10.0320    -3.7340    25.7890 ha         1 X7V       0.135000
     63 H26         10.8940    -2.0000    21.7770 ha         1 X7V       0.139000
     64 H27          8.9020    -1.4430    20.4780 ha         1 X7V       0.147500
     65 C02          5.3890    -2.0650    21.4090 c          1 X7V       0.603600
@<TRIPOS>BOND
     1     1     2 ar  
     2     1    26 1   
     3     1    28 ar  
     4     2    27 ar  
     5     2    38 1   
     6     3     4 ar  
     7     3    27 ar  
     8     3    39 1   
     9     4    28 ar  
    10     4    40 1   
    11     5     6 1   
    12     5     7 1   
    13     5    30 1   
    14     5    41 1   
    15     6    42 1   
    16     6    43 1   
    17     6    44 1   
    18     7     8 ar  
    19     7    12 ar  
    20     8     9 ar  
    21     8    45 1   
    22     9    10 ar  
    23     9    46 1   
    24    10    11 ar  
    25    10    47 1   
    26    11    12 ar  
    27    11    48 1   
    28    12    49 1   
    29    13    14 ar  
    30    13    33 ar  
    31    13    50 1   
    32    14    15 1   
    33    14    36 ar  
    34    15    16 ar  
    35    15    35 ar  
    36    16    17 ar  
    37    16    51 1   
    38    17    18 ar  
    39    17    52 1   
    40    18    34 ar  
    41    18    53 1   
    42    19    65 2   
    43    20    21 2   
    44    20    24 1   
    45    20    65 1   
    46    21    22 1   
    47    21    54 1   
    48    22    23 2   
    49    22    55 1   
    50    23    24 1   
    51    23    56 1   
    52    25    26 1   
    53    25    32 1   
    54    25    65 1   
    55    26    29 1   
    56    26    57 1   
    57    28    58 1   
    58    29    30 1   
    59    29    31 2   
    60    30    59 1   
    61    32    33 ar  
    62    32    37 ar  
    63    33    60 1   
    64    34    35 ar  
    65    34    61 1   
    66    35    62 1   
    67    36    37 ar  
    68    36    63 1   
    69    37    64 1   
@<TRIPOS>SUBSTRUCTURE
     1 X7V         1 TEMP              0 ****  ****    0 ROOT
