@<TRIPOS>MOLECULE
X7V
   65    69     1     0     0
SMALL
No Charge or Current Charge


@<TRIPOS>ATOM
      1 C10          5.6930     0.0460    19.2770 ca         1 X7V      -0.139300
      2 C11          6.2160    -1.1120    18.6590 ca         1 X7V       0.379900
      3 C13          5.2110    -0.6010    16.6350 ca         1 X7V       0.344900
      4 C14          4.6430     0.5690    17.1640 ca         1 X7V      -0.167000
      5 C18          8.4260     2.7340    22.6280 c3         1 X7V       0.164000
      6 C19          7.8320     4.1230    22.9300 c3         1 X7V      -0.106100
      7 C20          9.1970     2.1540    23.8120 ca         1 X7V      -0.095300
      8 C21         10.5750     1.8820    23.6930 ca         1 X7V      -0.093000
      9 C22         11.2850     1.3250    24.7710 ca         1 X7V      -0.110500
     10 C23         10.6230     1.0250    25.9720 ca         1 X7V      -0.110000
     11 C24          9.2490     1.2880    26.0980 ca         1 X7V      -0.110500
     12 C25          8.5390     1.8530    25.0240 ca         1 X7V      -0.093000
     13 C29          8.9550    -1.8160    23.9860 ca         1 X7V      -0.096500
     14 C30         10.1110    -1.7460    23.1720 cp         1 X7V      -0.024000
     15 C31         11.4700    -2.0730    23.7160 cp         1 X7V      -0.043000
     16 C32         12.6310    -1.4170    23.2310 ca         1 X7V      -0.098000
     17 C33         13.9050    -1.7160    23.7450 ca         1 X7V      -0.112500
     18 C34         14.0470    -2.6810    24.7550 ca         1 X7V      -0.104000
     19 O01          3.9390    -1.2200    21.8150 o          1 X7V      -0.562100
     20 C03          5.3130    -3.1220    22.1960 cc         1 X7V       0.058500
     21 C04          6.4490    -3.8850    22.0390 cd         1 X7V      -0.118000
     22 C05          6.1210    -5.2000    22.4260 cd         1 X7V      -0.206000
     23 C06          4.8030    -5.2030    22.7850 cc         1 X7V       0.146900
     24 O07          4.2840    -3.9380    22.6300 os         1 X7V      -0.199000
     25 N08          6.2070    -0.8400    21.6070 n          1 X7V      -0.231400
     26 C09          5.9700     0.3770    20.7520 c3         1 X7V       0.097000
     27 N12          5.9840    -1.4350    17.3650 nb         1 X7V      -0.670000
     28 C15          4.8830     0.9010    18.5060 ca         1 X7V      -0.050000
     29 C16          6.9870     1.5510    20.9270 c          1 X7V       0.595100
     30 N17          7.3840     1.7990    22.2240 ns         1 X7V      -0.501900
     31 O26          7.4300     2.2020    19.9880 o          1 X7V      -0.574100
     32 C27          7.5300    -1.0640    22.1460 ca         1 X7V      -0.064000
     33 C28          7.6840    -1.5050    23.4760 ca         1 X7V      -0.101000
     34 C35         12.9140    -3.3460    25.2490 ca         1 X7V      -0.112500
     35 C36         11.6400    -3.0450    24.7350 ca         1 X7V      -0.098000
     36 C37          9.9350    -1.3670    21.8190 ca         1 X7V      -0.096500
     37 C38          8.6650    -1.0500    21.3090 ca         1 X7V      -0.101000
     38 H1           6.8330    -1.8170    19.2130 h4         1 X7V       0.025100
     39 H2           5.0390    -0.8820    15.5960 h4         1 X7V       0.017100
     40 H3           4.0260     1.2050    16.5360 ha         1 X7V       0.123000
     41 H4           9.1270     2.8480    21.7890 h1         1 X7V       0.071700
     42 H5           8.6230     4.8190    23.2320 hc         1 X7V       0.045367
     43 H6           7.3390     4.5310    22.0400 hc         1 X7V       0.045367
     44 H7           7.0920     4.0690    23.7370 hc         1 X7V       0.045367
     45 H8          11.0980     2.0980    22.7640 ha         1 X7V       0.111500
     46 H9          12.3490     1.1210    24.6730 ha         1 X7V       0.114000
     47 H10         11.1730     0.5870    26.8020 ha         1 X7V       0.111000
     48 H11          8.7340     1.0550    27.0270 ha         1 X7V       0.114000
     49 H12          7.4750     2.0480    25.1340 ha         1 X7V       0.111500
     50 H13          9.0420    -2.1020    25.0310 ha         1 X7V       0.121000
     51 H14         12.5440    -0.6540    22.4620 ha         1 X7V       0.117000
     52 H15         14.7800    -1.1960    23.3630 ha         1 X7V       0.114000
     53 H16         15.0320    -2.9120    25.1530 ha         1 X7V       0.114000
     54 H17          7.4130    -3.5640    21.6600 ha         1 X7V       0.152000
     55 H18          6.7830    -6.0600    22.4250 ha         1 X7V       0.146000
     56 H19          4.1430    -5.9860    23.1330 h4         1 X7V       0.057100
     57 H20          5.0480     0.8300    21.1350 h1         1 X7V       0.063700
     58 H21          4.4520     1.8040    18.9340 ha         1 X7V       0.114000
     59 H22          7.0170     1.1730    22.9300 hn         1 X7V       0.317500
     60 H23          6.8200    -1.5750    24.1340 ha         1 X7V       0.129500
     61 H24         13.0220    -4.0970    26.0280 ha         1 X7V       0.114000
     62 H25         10.7800    -3.5840    25.1240 ha         1 X7V       0.117000
     63 H26         10.7890    -1.3350    21.1480 ha         1 X7V       0.121000
     64 H27          8.5780    -0.7790    20.2600 ha         1 X7V       0.129500
     65 C02          5.0780    -1.6740    21.8750 c          1 X7V       0.536600
@<TRIPOS>BOND
     1     1     2 ar  
     2     1    26 1   
     3     1    28 ar  
     4     2    27 ar  
     5     2    38 1   
     6     3     4 ar  
     7     3    27 ar  
     8     3    39 1   
     9     4    28 ar  
    10     4    40 1   
    11     5     6 1   
    12     5     7 1   
    13     5    30 1   
    14     5    41 1   
    15     6    42 1   
    16     6    43 1   
    17     6    44 1   
    18     7     8 ar  
    19     7    12 ar  
    20     8     9 ar  
    21     8    45 1   
    22     9    10 ar  
    23     9    46 1   
    24    10    11 ar  
    25    10    47 1   
    26    11    12 ar  
    27    11    48 1   
    28    12    49 1   
    29    13    14 ar  
    30    13    33 ar  
    31    13    50 1   
    32    14    15 1   
    33    14    36 ar  
    34    15    16 ar  
    35    15    35 ar  
    36    16    17 ar  
    37    16    51 1   
    38    17    18 ar  
    39    17    52 1   
    40    18    34 ar  
    41    18    53 1   
    42    19    65 2   
    43    20    21 2   
    44    20    24 1   
    45    20    65 1   
    46    21    22 1   
    47    21    54 1   
    48    22    23 2   
    49    22    55 1   
    50    23    24 1   
    51    23    56 1   
    52    25    26 1   
    53    25    32 1   
    54    25    65 1   
    55    26    29 1   
    56    26    57 1   
    57    28    58 1   
    58    29    30 1   
    59    29    31 2   
    60    30    59 1   
    61    32    33 ar  
    62    32    37 ar  
    63    33    60 1   
    64    34    35 ar  
    65    34    61 1   
    66    35    62 1   
    67    36    37 ar  
    68    36    63 1   
    69    37    64 1   
@<TRIPOS>SUBSTRUCTURE
     1 X7V         1 TEMP              0 ****  ****    0 ROOT
