@<TRIPOS>MOLECULE
X7W
   64    67     1     0     0
SMALL
abcg2


@<TRIPOS>ATOM
      1 C14        135.5280   175.1050   190.4220 ca         1 X7W      -0.010000
      2 C11        134.8540   175.9530   187.9040 ca         1 X7W       0.321000
      3 C10        133.8630   175.8490   188.8440 ca         1 X7W      -0.271000
      4 C12        136.1870   175.6410   188.1740 ca         1 X7W      -0.441500
      5 C13        136.5060   175.2090   189.4650 ca         1 X7W       0.077000
      6 C01        132.4680   178.0970   192.8640 c3         1 X7W       0.154600
      7 C02        131.9530   176.5940   194.6740 c3         1 X7W       0.154600
      8 C03        131.2990   175.9710   192.4110 c6         1 X7W       0.168500
      9 C04        129.8800   176.5450   192.3230 c6         1 X7W      -0.098400
     10 C05        128.9500   175.6060   191.5380 c6         1 X7W      -0.015400
     11 C06        129.5260   175.3400   190.1390 c6         1 X7W      -0.071400
     12 C07        130.9530   174.8010   190.2230 c6         1 X7W      -0.088400
     13 C08        131.8580   175.7680   190.9940 c6         1 X7W       0.226500
     14 C09        134.1680   175.4150   190.1520 ca         1 X7W       0.429000
     15 C15        136.7590   173.3790   185.8490 ca         1 X7W       0.374900
     16 C16        135.8670   171.5310   184.8710 ca         1 X7W       0.146900
     17 C17        136.8790   171.2560   186.8700 ca         1 X7W       0.129900
     18 C18        137.1870   172.6010   186.9280 ca         1 X7W      -0.254000
     19 C19        127.5300   176.1160   191.4840 ca         1 X7W      -0.084300
     20 C20        127.2310   177.3740   190.9570 ca         1 X7W      -0.057000
     21 C21        125.9180   177.8300   190.9220 ca         1 X7W      -0.188300
     22 C22        124.8740   177.0380   191.3980 ca         1 X7W      -0.059000
     23 C23        125.1640   175.7850   191.9190 ca         1 X7W      -0.112000
     24 C24        126.4790   175.3330   191.9620 ca         1 X7W      -0.077000
     25 C25        125.6060   179.1700   190.3230 c3         1 X7W       0.343300
     26 F01        134.5160   176.3670   186.6670 f          1 X7W      -0.165000
     27 F02        126.6490   180.0250   190.3790 f          1 X7W      -0.112667
     28 F03        125.2640   179.0750   189.0100 f          1 X7W      -0.112667
     29 F04        124.5690   179.7820   190.9370 f          1 X7W      -0.112667
     30 N01        132.2420   176.7120   193.2530 n3         1 X7W      -0.749600
     31 N02        133.2270   175.2880   191.1080 nu         1 X7W      -0.924200
     32 N03        136.9820   174.7420   185.7370 nu         1 X7W      -0.881000
     33 N04        136.0970   172.8400   184.8200 nb         1 X7W      -0.227000
     34 N05        136.2170   170.6980   185.8470 nb         1 X7W      -0.193000
     35 O01        138.6570   175.2950   187.5280 o          1 X7W      -0.534500
     36 O02        137.3950   177.0770   186.3340 o          1 X7W      -0.534500
     37 S01        137.4300   175.7790   186.9550 sy         1 X7W       1.243600
     38 CL01       135.9650   174.5750   192.0300 cl         1 X7W      -0.199000
     39 H1         132.8550   176.1100   188.5620 ha         1 X7W       0.140000
     40 H2         137.5290   174.9590   189.7050 ha         1 X7W       0.155000
     41 H3         133.2900   178.5000   193.4580 h1         1 X7W       0.036867
     42 H4         132.7540   178.1580   191.8140 h1         1 X7W       0.036867
     43 H5         131.5910   178.7420   193.0210 h1         1 X7W       0.036867
     44 H6         132.7880   177.0010   195.2460 h1         1 X7W       0.036867
     45 H7         131.0430   177.1320   194.9820 h1         1 X7W       0.036867
     46 H8         131.8330   175.5420   194.9390 h1         1 X7W       0.036867
     47 H9         131.2300   174.9760   192.8650 h1         1 X7W       0.064700
     48 H10        129.9090   177.5230   191.8360 hc         1 X7W       0.053700
     49 H11        129.4810   176.6970   193.3280 hc         1 X7W       0.053700
     50 H12        128.9280   174.6490   192.0680 hc         1 X7W       0.054700
     51 H13        129.5190   176.2700   189.5630 hc         1 X7W       0.052200
     52 H14        128.8900   174.6300   189.6060 hc         1 X7W       0.052200
     53 H15        130.9600   173.8360   190.7390 hc         1 X7W       0.057700
     54 H16        131.3470   174.6280   189.2210 hc         1 X7W       0.057700
     55 H17        131.8590   176.7320   190.4730 h1         1 X7W       0.054700
     56 H18        135.3340   171.1050   184.0270 h5         1 X7W       0.051100
     57 H19        137.1780   170.5960   187.6770 h4         1 X7W       0.028100
     58 H20        137.7400   173.0100   187.7570 ha         1 X7W       0.152000
     59 H21        128.0250   178.0040   190.5800 ha         1 X7W       0.128000
     60 H22        123.8550   177.3980   191.3680 ha         1 X7W       0.133000
     61 H23        124.3650   175.1610   192.2970 ha         1 X7W       0.125000
     62 H24        126.6970   174.3560   192.3760 ha         1 X7W       0.118000
     63 H26        133.5630   175.2410   192.0610 hn         1 X7W       0.521000
     64 H27        136.5260   175.1930   184.9520 hn         1 X7W       0.530000
@<TRIPOS>BOND
     1     1     5 ar  
     2     1    14 ar  
     3     1    38 1   
     4     2     3 ar  
     5     2     4 ar  
     6     2    26 1   
     7     3    14 ar  
     8     3    39 1   
     9     4     5 ar  
    10     4    37 1   
    11     5    40 1   
    12     6    30 1   
    13     6    41 1   
    14     6    42 1   
    15     6    43 1   
    16     7    30 1   
    17     7    44 1   
    18     7    45 1   
    19     7    46 1   
    20     8     9 1   
    21     8    13 1   
    22     8    30 1   
    23     8    47 1   
    24     9    10 1   
    25     9    48 1   
    26     9    49 1   
    27    10    11 1   
    28    10    19 1   
    29    10    50 1   
    30    11    12 1   
    31    11    51 1   
    32    11    52 1   
    33    12    13 1   
    34    12    53 1   
    35    12    54 1   
    36    13    31 1   
    37    13    55 1   
    38    14    31 1   
    39    15    18 ar  
    40    15    32 1   
    41    15    33 ar  
    42    16    33 ar  
    43    16    34 ar  
    44    16    56 1   
    45    17    18 ar  
    46    17    34 ar  
    47    17    57 1   
    48    18    58 1   
    49    19    20 ar  
    50    19    24 ar  
    51    20    21 ar  
    52    20    59 1   
    53    21    22 ar  
    54    21    25 1   
    55    22    23 ar  
    56    22    60 1   
    57    23    24 ar  
    58    23    61 1   
    59    24    62 1   
    60    25    27 1   
    61    25    28 1   
    62    25    29 1   
    63    31    63 1   
    64    32    37 1   
    65    32    64 1   
    66    35    37 2   
    67    36    37 2   
@<TRIPOS>SUBSTRUCTURE
     1 X7W         1 TEMP              0 ****  ****    0 ROOT
