@<TRIPOS>MOLECULE
X7W
   64    67     1     0     0
SMALL
No Charge or Current Charge


@<TRIPOS>ATOM
      1 C14        135.2050   175.1270   190.2310 ca         1 X7W      -0.010000
      2 C11        134.5820   175.6420   187.5450 ca         1 X7W       0.321000
      3 C10        133.5710   175.2710   188.4370 ca         1 X7W      -0.271000
      4 C12        135.9050   175.7630   187.9880 ca         1 X7W      -0.441500
      5 C13        136.2200   175.5010   189.3360 ca         1 X7W       0.077000
      6 C01        132.7240   177.6040   192.5130 c3         1 X7W       0.154600
      7 C02        132.1030   176.2560   194.4810 c3         1 X7W       0.154600
      8 C03        131.1920   175.6130   192.2380 c6         1 X7W       0.168500
      9 C04        129.8400   176.3820   192.2990 c6         1 X7W      -0.098400
     10 C05        128.7050   175.5720   191.6070 c6         1 X7W      -0.015400
     11 C06        129.0910   175.2170   190.1430 c6         1 X7W      -0.071400
     12 C07        130.4550   174.4840   190.0710 c6         1 X7W      -0.088400
     13 C08        131.5650   175.3340   190.7380 c6         1 X7W       0.226500
     14 C09        133.8730   175.0160   189.7790 ca         1 X7W       0.429000
     15 C15        137.2740   173.5930   186.0450 ca         1 X7W       0.374900
     16 C16        136.6700   171.4940   185.3510 ca         1 X7W       0.146900
     17 C17        137.7690   171.6440   187.3570 ca         1 X7W       0.129900
     18 C18        137.8420   173.0380   187.2020 ca         1 X7W      -0.254000
     19 C19        127.3570   176.3040   191.6790 ca         1 X7W      -0.084300
     20 C20        127.1860   177.5670   191.0730 ca         1 X7W      -0.057000
     21 C21        125.9480   178.2430   191.1410 ca         1 X7W      -0.188300
     22 C22        124.8700   177.6310   191.8150 ca         1 X7W      -0.059000
     23 C23        125.0340   176.3740   192.4200 ca         1 X7W      -0.112000
     24 C24        126.2710   175.7140   192.3550 ca         1 X7W      -0.077000
     25 C25        125.7820   179.6100   190.4670 c3         1 X7W       0.343300
     26 F01        134.2550   175.8590   186.2520 f          1 X7W      -0.165000
     27 F02        126.8990   180.3670   190.5680 f          1 X7W      -0.112667
     28 F03        125.5120   179.4780   189.1490 f          1 X7W      -0.112667
     29 F04        124.7760   180.3370   191.0050 f          1 X7W      -0.112667
     30 N01        132.3030   176.2700   193.0130 n3         1 X7W      -0.749600
     31 N02        132.8670   174.6460   190.6740 nu         1 X7W      -0.924200
     32 N03        137.2680   174.9430   185.7740 nu         1 X7W      -0.881000
     33 N04        136.6890   172.8230   185.1130 nb         1 X7W      -0.227000
     34 N05        137.1800   170.8630   186.4300 nb         1 X7W      -0.193000
     35 O01        138.4960   176.2180   187.5210 o          1 X7W      -0.534500
     36 O02        136.7470   177.3180   186.0020 o          1 X7W      -0.534500
     37 S01        137.1950   176.2130   186.8500 sy         1 X7W       1.243600
     38 Cl01       135.6280   174.8020   191.9180 cl         1 X7W      -0.199000
     39 H1         132.5570   175.1780   188.0710 ha         1 X7W       0.140000
     40 H2         137.2430   175.5810   189.7020 ha         1 X7W       0.155000
     41 H3         133.6050   177.9590   193.0640 h1         1 X7W       0.036867
     42 H4         132.9950   177.5670   191.4500 h1         1 X7W       0.036867
     43 H5         131.9240   178.3460   192.6410 h1         1 X7W       0.036867
     44 H6         133.0190   176.5720   194.9980 h1         1 X7W       0.036867
     45 H7         131.2950   176.9360   194.7800 h1         1 X7W       0.036867
     46 H8         131.8520   175.2460   194.8310 h1         1 X7W       0.036867
     47 H9         131.0140   174.6280   192.6960 h1         1 X7W       0.064700
     48 H10        129.9460   177.3640   191.8220 hc         1 X7W       0.053700
     49 H11        129.5530   176.5690   193.3420 hc         1 X7W       0.053700
     50 H12        128.6060   174.6230   192.1530 hc         1 X7W       0.054700
     51 H13        129.1370   176.1290   189.5310 hc         1 X7W       0.052200
     52 H14        128.3090   174.5870   189.6970 hc         1 X7W       0.052200
     53 H15        130.3790   173.5070   190.5690 hc         1 X7W       0.057700
     54 H16        130.7030   174.2770   189.0220 hc         1 X7W       0.057700
     55 H17        131.6250   176.3010   190.2170 h1         1 X7W       0.054700
     56 H18        136.1950   170.8690   184.5980 h5         1 X7W       0.051100
     57 H19        138.1890   171.1450   188.2290 h4         1 X7W       0.028100
     58 H20        138.3290   173.6470   187.9550 ha         1 X7W       0.152000
     59 H21        128.0190   178.0240   190.5440 ha         1 X7W       0.128000
     60 H22        123.9000   178.1220   191.8720 ha         1 X7W       0.133000
     61 H23        124.1990   175.9100   192.9390 ha         1 X7W       0.125000
     62 H24        126.3820   174.7400   192.8280 ha         1 X7W       0.118000
     63 H26        133.2670   174.5230   191.6070 hn         1 X7W       0.521000
     64 H27        136.6950   175.2330   184.9970 hn         1 X7W       0.530000
@<TRIPOS>BOND
     1     1     5 ar  
     2     1    14 ar  
     3     1    38 1   
     4     2     3 ar  
     5     2     4 ar  
     6     2    26 1   
     7     3    14 ar  
     8     3    39 1   
     9     4     5 ar  
    10     4    37 1   
    11     5    40 1   
    12     6    30 1   
    13     6    41 1   
    14     6    42 1   
    15     6    43 1   
    16     7    30 1   
    17     7    44 1   
    18     7    45 1   
    19     7    46 1   
    20     8     9 1   
    21     8    13 1   
    22     8    30 1   
    23     8    47 1   
    24     9    10 1   
    25     9    48 1   
    26     9    49 1   
    27    10    11 1   
    28    10    19 1   
    29    10    50 1   
    30    11    12 1   
    31    11    51 1   
    32    11    52 1   
    33    12    13 1   
    34    12    53 1   
    35    12    54 1   
    36    13    31 1   
    37    13    55 1   
    38    14    31 1   
    39    15    18 ar  
    40    15    32 1   
    41    15    33 ar  
    42    16    33 ar  
    43    16    34 ar  
    44    16    56 1   
    45    17    18 ar  
    46    17    34 ar  
    47    17    57 1   
    48    18    58 1   
    49    19    20 ar  
    50    19    24 ar  
    51    20    21 ar  
    52    20    59 1   
    53    21    22 ar  
    54    21    25 1   
    55    22    23 ar  
    56    22    60 1   
    57    23    24 ar  
    58    23    61 1   
    59    24    62 1   
    60    25    27 1   
    61    25    28 1   
    62    25    29 1   
    63    31    63 1   
    64    32    37 1   
    65    32    64 1   
    66    35    37 2   
    67    36    37 2   
@<TRIPOS>SUBSTRUCTURE
     1 X7W         1 TEMP              0 ****  ****    0 ROOT
