@<TRIPOS>MOLECULE
X7Y
   63    67     1     0     0
SMALL
abcg2


@<TRIPOS>ATOM
      1 N1         -10.5520    24.3340   -10.3060 nb         1 X7Y      -0.284000
      2 C7         -10.2440    27.6660    -4.9430 c3         1 X7Y       0.155900
      3 C8         -12.4420    27.8120    -6.7070 ca         1 X7Y      -0.204000
      4 N2         -10.2180    25.3050    -8.2040 nu         1 X7Y      -0.914900
      5 C9         -13.5360    27.8660    -7.5930 ca         1 X7Y       0.300000
      6 O1         -10.2850    26.8720    -6.1260 os         1 X7Y      -0.369100
      7 C1          -8.4440    20.2360   -11.1010 c3         1 X7Y       0.091300
      8 C5         -11.3440    26.1270    -8.0800 ca         1 X7Y       0.260000
      9 C6         -11.3710    26.9720    -6.9460 ca         1 X7Y       0.115100
     10 N3         -14.6240    28.7070    -7.2970 nh         1 X7Y      -0.784400
     11 C4          -9.8290    24.4480    -9.1870 ca         1 X7Y       0.402900
     12 C3         -10.1580    23.4510   -11.2170 ca         1 X7Y       0.385900
     13 C2          -9.0470    22.6260   -11.0020 ca         1 X7Y      -0.125400
     14 N4         -16.6420    30.7480    -7.2340 n3         1 X7Y      -0.717600
     15 N           -8.7620    21.4890   -11.7960 n          1 X7Y      -0.295000
     16 C           -8.6650    21.4980   -13.1510 c          1 X7Y       0.586600
     17 O           -8.2780    20.5000   -13.7630 o          1 X7Y      -0.561000
     18 C10        -15.7710    28.6590    -8.1940 c6         1 X7Y       0.194800
     19 C11        -16.9650    29.3690    -7.5780 c6         1 X7Y       0.157300
     20 C12        -17.7960    31.4500    -6.6960 c3         1 X7Y       0.151100
     21 C13        -15.5180    30.7730    -6.3070 c6         1 X7Y       0.157300
     22 C14        -14.3060    30.0850    -6.9080 c6         1 X7Y       0.194800
     23 C15        -13.5030    27.0370    -8.7150 ca         1 X7Y      -0.177000
     24 C16        -12.4290    26.1750    -8.9460 ca         1 X7Y      -0.082000
     25 C17         -8.3270    22.8780    -9.8390 ca         1 X7Y       0.143900
     26 C18        -12.2490    23.9100   -12.3620 c3         1 X7Y       0.203100
     27 C19        -10.1460    23.5400   -13.6050 ca         1 X7Y       0.317000
     28 C20         -9.0410    22.7280   -13.9080 ca         1 X7Y      -0.157600
     29 C21         -8.3160    22.9700   -15.0790 ca         1 X7Y      -0.043000
     30 C22         -8.6680    23.9830   -15.9540 ca         1 X7Y      -0.135000
     31 C23         -9.7900    24.7560   -15.6730 ca         1 X7Y      -0.069000
     32 C24        -10.5200    24.5370   -14.5150 ca         1 X7Y      -0.158000
     33 N5          -8.6850    23.7810    -8.9340 nb         1 X7Y      -0.242000
     34 N6         -10.8870    23.3780   -12.4040 na         1 X7Y      -0.788100
     35 H1          -9.3020    27.4270    -4.4570 h1         1 X7Y       0.043367
     36 H2         -10.2750    28.7310    -5.1860 h1         1 X7Y       0.043367
     37 H3         -11.0750    27.4190    -4.2780 h1         1 X7Y       0.043367
     38 H4         -12.4480    28.4170    -5.8150 ha         1 X7Y       0.121000
     39 H5          -9.5800    25.3450    -7.4240 hn         1 X7Y       0.529000
     40 H6          -8.9260    20.2510   -10.1270 h1         1 X7Y       0.048700
     41 H7          -8.8220    19.4010   -11.6850 h1         1 X7Y       0.048700
     42 H8          -7.3670    20.1120   -10.9710 h1         1 X7Y       0.048700
     43 H10        -16.0420    27.6190    -8.3700 h1         1 X7Y       0.044700
     44 H11        -15.5350    29.1160    -9.1680 h1         1 X7Y       0.044700
     45 H12        -17.7880    29.3670    -8.2940 h1         1 X7Y       0.040450
     46 H13        -17.2950    28.8080    -6.6850 h1         1 X7Y       0.040450
     47 H14        -17.5300    32.4870    -6.4830 h1         1 X7Y       0.032700
     48 H15        -18.6060    31.4420    -7.4270 h1         1 X7Y       0.032700
     49 H16        -18.1690    30.9930    -5.7640 h1         1 X7Y       0.032700
     50 H17        -15.2650    31.8120    -6.0850 h1         1 X7Y       0.040450
     51 H18        -15.7800    30.2790    -5.3540 h1         1 X7Y       0.040450
     52 H19        -13.5050    30.0870    -6.1740 h1         1 X7Y       0.044700
     53 H20        -13.9610    30.6540    -7.7850 h1         1 X7Y       0.044700
     54 H21        -14.3060    27.0460    -9.4350 ha         1 X7Y       0.116000
     55 H22        -12.4320    25.5460    -9.8190 ha         1 X7Y       0.145000
     56 H23         -7.4360    22.3000    -9.6200 h4         1 X7Y       0.030100
     57 H24        -12.7470    23.5080   -11.4830 h1         1 X7Y       0.047033
     58 H25        -12.2860    25.0010   -12.3080 h1         1 X7Y       0.047033
     59 H26        -12.7740    23.5750   -13.2550 h1         1 X7Y       0.047033
     60 H27         -7.4770    22.3250   -15.3000 ha         1 X7Y       0.135000
     61 H28         -8.0860    24.1570   -16.8500 ha         1 X7Y       0.122000
     62 H29        -10.0960    25.5420   -16.3520 ha         1 X7Y       0.116000
     63 H30        -11.3760    25.1600   -14.3090 ha         1 X7Y       0.121000
@<TRIPOS>BOND
     1     1    11 ar  
     2     1    12 ar  
     3     2     6 1   
     4     2    35 1   
     5     2    36 1   
     6     2    37 1   
     7     3     5 ar  
     8     3     9 ar  
     9     3    38 1   
    10     4     8 1   
    11     4    11 1   
    12     4    39 1   
    13     5    10 1   
    14     5    23 ar  
    15     6     9 1   
    16     7    15 1   
    17     7    40 1   
    18     7    41 1   
    19     7    42 1   
    20     8     9 ar  
    21     8    24 ar  
    22    10    18 1   
    23    10    22 1   
    24    11    33 ar  
    25    12    13 ar  
    26    12    34 1   
    27    13    15 1   
    28    13    25 ar  
    29    14    19 1   
    30    14    20 1   
    31    14    21 1   
    32    15    16 1   
    33    16    17 2   
    34    16    28 1   
    35    18    19 1   
    36    18    43 1   
    37    18    44 1   
    38    19    45 1   
    39    19    46 1   
    40    20    47 1   
    41    20    48 1   
    42    20    49 1   
    43    21    22 1   
    44    21    50 1   
    45    21    51 1   
    46    22    52 1   
    47    22    53 1   
    48    23    24 ar  
    49    23    54 1   
    50    24    55 1   
    51    25    33 ar  
    52    25    56 1   
    53    26    34 1   
    54    26    57 1   
    55    26    58 1   
    56    26    59 1   
    57    27    28 ar  
    58    27    32 ar  
    59    27    34 1   
    60    28    29 ar  
    61    29    30 ar  
    62    29    60 1   
    63    30    31 ar  
    64    30    61 1   
    65    31    32 ar  
    66    31    62 1   
    67    32    63 1   
@<TRIPOS>SUBSTRUCTURE
     1 X7Y         1 TEMP              0 ****  ****    0 ROOT
