@<TRIPOS>MOLECULE
X7Y
   63    67     1     0     0
SMALL
No Charge or Current Charge


@<TRIPOS>ATOM
      1 N1         -10.7550    24.0510   -10.2680 nb         1 X7Y      -0.284000
      2 C7         -10.1080    27.8540    -5.1570 c3         1 X7Y       0.155900
      3 C8         -12.4870    27.8470    -6.8220 ca         1 X7Y      -0.204000
      4 N2         -10.5980    24.8850    -8.0790 nu         1 X7Y      -0.914900
      5 C9         -13.6360    27.8260    -7.6290 ca         1 X7Y       0.300000
      6 O1         -10.3420    26.8640    -6.1760 os         1 X7Y      -0.369100
      7 C1          -8.2230    20.0560   -11.4590 c3         1 X7Y       0.091300
      8 C5         -11.6170    25.8510    -7.9570 ca         1 X7Y       0.260000
      9 C6         -11.4800    26.8670    -6.9740 ca         1 X7Y       0.115100
     10 N3         -14.6280    28.8170    -7.4550 nh         1 X7Y      -0.784400
     11 C4         -10.1840    23.9930    -9.0590 ca         1 X7Y       0.402900
     12 C3         -10.3140    23.1930   -11.2050 ca         1 X7Y       0.385900
     13 C2          -9.3200    22.2320   -10.9070 ca         1 X7Y      -0.125400
     14 N4         -16.6980    30.9610    -7.2590 n3         1 X7Y      -0.717600
     15 N           -8.7050    21.3840   -11.9160 n          1 X7Y      -0.295000
     16 C           -8.3430    21.7820   -13.2410 c          1 X7Y       0.586600
     17 O           -7.6310    21.0440   -13.9170 o          1 X7Y      -0.561000
     18 C10        -16.0630    28.5510    -7.7950 c6         1 X7Y       0.194800
     19 C11        -17.0450    29.5210    -7.0590 c6         1 X7Y       0.157300
     20 C12        -17.6520    31.8760    -6.5970 c3         1 X7Y       0.151100
     21 C13        -15.2830    31.2020    -6.8410 c6         1 X7Y       0.157300
     22 C14        -14.2650    30.2660    -7.5720 c6         1 X7Y       0.194800
     23 C15        -13.7800    26.8050    -8.5860 ca         1 X7Y      -0.177000
     24 C16        -12.7840    25.8260    -8.7480 ca         1 X7Y      -0.082000
     25 C17         -8.7340    22.3280    -9.6250 ca         1 X7Y       0.143900
     26 C18        -12.1900    22.7180   -12.7590 c3         1 X7Y       0.203100
     27 C19        -10.0240    23.7120   -13.4810 ca         1 X7Y       0.317000
     28 C20         -8.8250    23.0780   -13.8570 ca         1 X7Y      -0.157600
     29 C21         -8.0670    23.6460   -14.9100 ca         1 X7Y      -0.043000
     30 C22         -8.4820    24.8300   -15.5420 ca         1 X7Y      -0.135000
     31 C23         -9.6670    25.4620   -15.1430 ca         1 X7Y      -0.069000
     32 C24        -10.4360    24.8980   -14.1140 ca         1 X7Y      -0.158000
     33 N5          -9.1750    23.1920    -8.6940 nb         1 X7Y      -0.242000
     34 N6         -10.8160    23.1910   -12.4840 na         1 X7Y      -0.788100
     35 H1          -9.1520    27.6640    -4.6540 h1         1 X7Y       0.043367
     36 H2         -10.0680    28.8610    -5.5920 h1         1 X7Y       0.043367
     37 H3         -10.9010    27.8290    -4.3980 h1         1 X7Y       0.043367
     38 H4         -12.4000    28.6230    -6.0710 ha         1 X7Y       0.121000
     39 H5          -9.9400    24.9300    -7.2990 hn         1 X7Y       0.529000
     40 H6          -8.7340    19.7610   -10.5340 h1         1 X7Y       0.048700
     41 H7          -8.4340    19.2950   -12.2220 h1         1 X7Y       0.048700
     42 H8          -7.1420    20.0960   -11.2770 h1         1 X7Y       0.048700
     43 H10        -16.3330    27.5190    -7.5250 h1         1 X7Y       0.044700
     44 H11        -16.2130    28.6570    -8.8790 h1         1 X7Y       0.044700
     45 H12        -18.0650    29.3220    -7.4180 h1         1 X7Y       0.040450
     46 H13        -17.0320    29.2770    -5.9860 h1         1 X7Y       0.040450
     47 H14        -17.3930    32.9230    -6.8040 h1         1 X7Y       0.032700
     48 H15        -18.6730    31.7020    -6.9620 h1         1 X7Y       0.032700
     49 H16        -17.6470    31.7290    -5.5080 h1         1 X7Y       0.032700
     50 H17        -15.0000    32.2460    -7.0390 h1         1 X7Y       0.040450
     51 H18        -15.1800    31.0450    -5.7560 h1         1 X7Y       0.040450
     52 H19        -13.2650    30.4540    -7.1570 h1         1 X7Y       0.044700
     53 H20        -14.2300    30.5500    -8.6340 h1         1 X7Y       0.044700
     54 H21        -14.6610    26.7660    -9.2190 ha         1 X7Y       0.116000
     55 H22        -12.9390    25.0430    -9.4820 ha         1 X7Y       0.145000
     56 H23         -7.8920    21.7030    -9.3330 h4         1 X7Y       0.030100
     57 H24        -12.4170    21.8410   -12.1380 h1         1 X7Y       0.047033
     58 H25        -12.9120    23.5140   -12.5300 h1         1 X7Y       0.047033
     59 H26        -12.2910    22.4380   -13.8160 h1         1 X7Y       0.047033
     60 H27         -7.1430    23.1740   -15.2380 ha         1 X7Y       0.135000
     61 H28         -7.8820    25.2570   -16.3440 ha         1 X7Y       0.122000
     62 H29         -9.9910    26.3790   -15.6300 ha         1 X7Y       0.116000
     63 H30        -11.3570    25.3830   -13.8050 ha         1 X7Y       0.121000
@<TRIPOS>BOND
     1     1    11 ar  
     2     1    12 ar  
     3     2     6 1   
     4     2    35 1   
     5     2    36 1   
     6     2    37 1   
     7     3     5 ar  
     8     3     9 ar  
     9     3    38 1   
    10     4     8 1   
    11     4    11 1   
    12     4    39 1   
    13     5    10 1   
    14     5    23 ar  
    15     6     9 1   
    16     7    15 1   
    17     7    40 1   
    18     7    41 1   
    19     7    42 1   
    20     8     9 ar  
    21     8    24 ar  
    22    10    18 1   
    23    10    22 1   
    24    11    33 ar  
    25    12    13 ar  
    26    12    34 1   
    27    13    15 1   
    28    13    25 ar  
    29    14    19 1   
    30    14    20 1   
    31    14    21 1   
    32    15    16 1   
    33    16    17 2   
    34    16    28 1   
    35    18    19 1   
    36    18    43 1   
    37    18    44 1   
    38    19    45 1   
    39    19    46 1   
    40    20    47 1   
    41    20    48 1   
    42    20    49 1   
    43    21    22 1   
    44    21    50 1   
    45    21    51 1   
    46    22    52 1   
    47    22    53 1   
    48    23    24 ar  
    49    23    54 1   
    50    24    55 1   
    51    25    33 ar  
    52    25    56 1   
    53    26    34 1   
    54    26    57 1   
    55    26    58 1   
    56    26    59 1   
    57    27    28 ar  
    58    27    32 ar  
    59    27    34 1   
    60    28    29 ar  
    61    29    30 ar  
    62    29    60 1   
    63    30    31 ar  
    64    30    61 1   
    65    31    32 ar  
    66    31    62 1   
    67    32    63 1   
@<TRIPOS>SUBSTRUCTURE
     1 X7Y         1 TEMP              0 ****  ****    0 ROOT
