@<TRIPOS>MOLECULE
X80
   72    75     1     0     0
SMALL
No Charge or Current Charge


@<TRIPOS>ATOM
      1 C14        131.5800   171.5410   188.2830 ca         1 X80      -0.248000
      2 C11        131.0570   172.9550   185.9270 ca         1 X80       0.362000
      3 C10        130.0260   172.6970   186.8350 ca         1 X80      -0.293000
      4 C12        132.3640   172.5110   186.1970 ca         1 X80      -0.437500
      5 C13        132.6230   171.7950   187.3810 ca         1 X80       0.059000
      6 C01        128.2470   176.4860   190.3500 c3         1 X80       0.147100
      7 C02        126.9640   175.3850   188.5930 c3         1 X80       0.147100
      8 C03        128.7830   174.0990   189.7550 c6         1 X80       0.164500
      9 C04        129.5440   173.8790   191.1060 c6         1 X80      -0.073400
     10 C05        128.6190   173.2880   192.2010 c6         1 X80      -0.071400
     11 C06        128.0070   171.9410   191.7450 c6         1 X80      -0.072400
     12 C07        127.2950   172.0720   190.3710 c6         1 X80      -0.083400
     13 C08        128.2090   172.6970   189.2800 c6         1 X80       0.239500
     14 C09        130.2880   171.9960   188.0120 ca         1 X80       0.430000
     15 C15        133.0330   170.7160   183.4540 c          1 X80       0.658700
     16 C16        133.4930   169.3930   182.8870 ca         1 X80      -0.244600
     17 C17        134.5730   168.6800   183.4680 ca         1 X80      -0.016000
     18 C18        134.9870   167.4460   182.9420 ca         1 X80       0.039000
     19 C19        134.3320   166.8890   181.8270 ca         1 X80       0.214100
     20 C20        134.0120   164.8510   180.4320 c3         1 X80       0.169600
     21 C21        132.8000   164.2470   181.1910 c5         1 X80      -0.105700
     22 C22        131.9900   163.2120   180.3720 c5         1 X80      -0.072900
     23 C23        131.0060   162.6580   181.4400 c5         1 X80      -0.079400
     24 C24        131.7920   162.7450   182.7900 c5         1 X80      -0.079400
     25 C25        133.1680   163.3620   182.4100 c5         1 X80      -0.072900
     26 C26        133.2620   167.5910   181.2400 ca         1 X80      -0.264000
     27 C27        132.8470   168.8230   181.7660 ca         1 X80       0.275000
     28 F01        130.7490   173.6380   184.8040 f          1 X80      -0.137000
     29 F02        131.8280   169.4560   181.1440 f          1 X80      -0.149000
     30 N01        127.7310   175.1850   189.8490 n3         1 X80      -0.715600
     31 N02        129.2790   171.7330   188.9270 nu         1 X80      -0.957200
     32 N03        133.9200   171.3450   184.2690 ns         1 X80      -0.580300
     33 O01        134.9490   172.9550   185.8500 o          1 X80      -0.529500
     34 O02        133.3420   173.7860   184.0500 o          1 X80      -0.529500
     35 O03        131.9260   171.1770   183.2360 o          1 X80      -0.540100
     36 O04        134.7760   165.6730   181.3380 os         1 X80      -0.322100
     37 S01        133.7220   172.7990   185.0640 sy         1 X80       1.211300
     38 Cl01       136.3300   166.5970   183.7120 cl         1 X80      -0.170000
     39 H1         131.7850   170.9920   189.1970 ha         1 X80       0.118000
     40 H2         129.0240   173.0400   186.6100 ha         1 X80       0.136000
     41 H3         133.6250   171.4320   187.6100 ha         1 X80       0.128000
     42 H4         128.5810   176.4120   191.3910 h1         1 X80       0.033367
     43 H5         129.0850   176.8380   189.7340 h1         1 X80       0.033367
     44 H6         127.4600   177.2520   190.3250 h1         1 X80       0.033367
     45 H7         126.2700   176.2300   188.6900 h1         1 X80       0.033367
     46 H8         127.6380   175.5920   187.7500 h1         1 X80       0.033367
     47 H9         126.3560   174.5060   188.3470 h1         1 X80       0.033367
     48 H10        129.5280   174.4220   189.0130 h1         1 X80       0.035700
     49 H11        130.3870   173.1930   190.9430 hc         1 X80       0.043700
     50 H12        130.0130   174.8040   191.4620 hc         1 X80       0.043700
     51 H13        129.1860   173.1420   193.1300 hc         1 X80       0.047700
     52 H14        127.8160   174.0010   192.4370 hc         1 X80       0.047700
     53 H15        127.2920   171.5840   192.5000 hc         1 X80       0.036200
     54 H16        128.7960   171.1790   191.6880 hc         1 X80       0.036200
     55 H17        126.4020   172.7010   190.4890 hc         1 X80       0.059200
     56 H18        126.9300   171.0900   190.0400 hc         1 X80       0.059200
     57 H19        127.5960   172.8460   188.3820 h1         1 X80       0.065700
     58 H20        135.0930   169.0560   184.3460 ha         1 X80       0.134000
     59 H21        134.6390   164.0270   180.0670 h1         1 X80       0.062200
     60 H22        133.6770   165.4170   179.5530 h1         1 X80       0.062200
     61 H23        132.1540   165.0790   181.4960 hc         1 X80       0.059700
     62 H24        132.6330   162.4190   179.9690 hc         1 X80       0.046700
     63 H25        131.4660   163.6660   179.5220 hc         1 X80       0.046700
     64 H26        130.0940   163.2640   181.4850 hc         1 X80       0.044700
     65 H27        130.6940   161.6330   181.2090 hc         1 X80       0.044700
     66 H28        131.2590   163.3840   183.5040 hc         1 X80       0.044700
     67 H29        131.9070   161.7640   183.2650 hc         1 X80       0.044700
     68 H30        133.6020   163.9380   183.2350 hc         1 X80       0.046700
     69 H31        133.8940   162.5840   182.1410 hc         1 X80       0.046700
     70 H32        132.7440   167.2070   180.3690 ha         1 X80       0.145000
     71 H34        129.5600   171.0900   189.6650 hn         1 X80       0.495000
     72 H35        134.8350   170.9630   184.4200 hn         1 X80       0.346500
@<TRIPOS>BOND
     1     1     5 ar  
     2     1    14 ar  
     3     1    39 1   
     4     2     3 ar  
     5     2     4 ar  
     6     2    28 1   
     7     3    14 ar  
     8     3    40 1   
     9     4     5 ar  
    10     4    37 1   
    11     5    41 1   
    12     6    30 1   
    13     6    42 1   
    14     6    43 1   
    15     6    44 1   
    16     7    30 1   
    17     7    45 1   
    18     7    46 1   
    19     7    47 1   
    20     8     9 1   
    21     8    13 1   
    22     8    30 1   
    23     8    48 1   
    24     9    10 1   
    25     9    49 1   
    26     9    50 1   
    27    10    11 1   
    28    10    51 1   
    29    10    52 1   
    30    11    12 1   
    31    11    53 1   
    32    11    54 1   
    33    12    13 1   
    34    12    55 1   
    35    12    56 1   
    36    13    31 1   
    37    13    57 1   
    38    14    31 1   
    39    15    16 1   
    40    15    32 1   
    41    15    35 2   
    42    16    17 ar  
    43    16    27 ar  
    44    17    18 ar  
    45    17    58 1   
    46    18    19 ar  
    47    18    38 1   
    48    19    26 ar  
    49    19    36 1   
    50    20    21 1   
    51    20    36 1   
    52    20    59 1   
    53    20    60 1   
    54    21    22 1   
    55    21    25 1   
    56    21    61 1   
    57    22    23 1   
    58    22    62 1   
    59    22    63 1   
    60    23    24 1   
    61    23    64 1   
    62    23    65 1   
    63    24    25 1   
    64    24    66 1   
    65    24    67 1   
    66    25    68 1   
    67    25    69 1   
    68    26    27 ar  
    69    26    70 1   
    70    27    29 1   
    71    31    71 1   
    72    32    37 1   
    73    32    72 1   
    74    33    37 2   
    75    34    37 2   
@<TRIPOS>SUBSTRUCTURE
     1 X80         1 TEMP              0 ****  ****    0 ROOT
