@<TRIPOS>MOLECULE
X80
   72    75     1     0     0
SMALL
abcg2


@<TRIPOS>ATOM
      1 C14        132.6010   172.0060   188.2730 ca         1 X80      -0.248000
      2 C11        131.7430   173.3360   186.0140 ca         1 X80       0.362000
      3 C10        130.8430   173.1000   187.0250 ca         1 X80      -0.293000
      4 C12        133.0710   172.9290   186.0900 ca         1 X80      -0.437500
      5 C13        133.4770   172.2570   187.2530 ca         1 X80       0.059000
      6 C01        127.0720   175.6430   189.9470 c3         1 X80       0.147100
      7 C02        127.0400   174.3120   187.9890 c3         1 X80       0.147100
      8 C03        128.7740   173.9450   189.6270 c6         1 X80       0.164500
      9 C04        129.2050   174.1000   191.0880 c6         1 X80      -0.073400
     10 C05        128.4240   173.1880   192.0270 c6         1 X80      -0.071400
     11 C06        128.5830   171.7270   191.6190 c6         1 X80      -0.072400
     12 C07        128.2380   171.5200   190.1470 c6         1 X80      -0.083400
     13 C08        128.9910   172.4690   189.2150 c6         1 X80       0.239500
     14 C09        131.2490   172.4160   188.1860 ca         1 X80       0.430000
     15 C15        133.2730   170.9600   183.6040 c          1 X80       0.658700
     16 C16        133.5500   169.5560   183.2110 ca         1 X80      -0.244600
     17 C17        134.3460   168.7250   184.0010 ca         1 X80      -0.016000
     18 C18        134.5410   167.4040   183.6670 ca         1 X80       0.039000
     19 C19        133.9640   166.8560   182.5110 ca         1 X80       0.214100
     20 C20        133.6390   164.8980   181.1620 c3         1 X80       0.169600
     21 C21        132.2070   164.4830   181.4330 c5         1 X80      -0.105700
     22 C22        131.6630   163.5920   180.3010 c5         1 X80      -0.072900
     23 C23        130.6610   162.6230   180.9690 c5         1 X80      -0.079400
     24 C24        130.6460   162.9990   182.4570 c5         1 X80      -0.079400
     25 C25        132.0080   163.6450   182.6950 c5         1 X80      -0.072900
     26 C26        133.1720   167.6790   181.7140 ca         1 X80      -0.264000
     27 C27        132.9730   168.9940   182.0820 ca         1 X80       0.275000
     28 F01        131.2960   173.9920   184.9470 f          1 X80      -0.137000
     29 F02        132.2170   169.7520   181.2870 f          1 X80      -0.149000
     30 N01        127.3860   174.3380   189.3980 n3         1 X80      -0.715600
     31 N02        130.4010   172.1360   189.1910 nu         1 X80      -0.957200
     32 N03        134.3530   171.6320   184.1090 ns         1 X80      -0.580300
     33 O01        135.5590   173.3280   185.4220 o          1 X80      -0.529500
     34 O02        133.7790   174.1160   183.8490 o          1 X80      -0.529500
     35 O03        132.1800   171.4730   183.5170 o          1 X80      -0.540100
     36 O04        134.2420   165.5840   182.2610 os         1 X80      -0.322100
     37 S01        134.2450   173.1600   184.8270 sy         1 X80       1.211300
     38 CL01       135.5060   166.3920   184.6760 cl         1 X80      -0.170000
     39 H1         132.9440   171.4820   189.1560 ha         1 X80       0.118000
     40 H2         129.8330   173.4620   186.8980 ha         1 X80       0.136000
     41 H3         134.5010   171.9210   187.3500 ha         1 X80       0.128000
     42 H4         127.1250   175.6450   191.0350 h1         1 X80       0.033367
     43 H5         127.7280   176.4450   189.5740 h1         1 X80       0.033367
     44 H6         126.0480   175.9070   189.6800 h1         1 X80       0.033367
     45 H7         126.0260   174.6860   187.8540 h1         1 X80       0.033367
     46 H8         127.7100   174.9310   187.3700 h1         1 X80       0.033367
     47 H9         127.0550   173.3010   187.5860 h1         1 X80       0.033367
     48 H10        129.4440   174.5760   189.0120 h1         1 X80       0.035700
     49 H11        130.2690   173.8520   191.1470 hc         1 X80       0.043700
     50 H12        129.1380   175.1400   191.4070 hc         1 X80       0.043700
     51 H13        128.7700   173.3300   193.0540 hc         1 X80       0.047700
     52 H14        127.3640   173.4580   192.0150 hc         1 X80       0.047700
     53 H15        127.9470   171.0860   192.2330 hc         1 X80       0.036200
     54 H16        129.6100   171.4030   191.8220 hc         1 X80       0.036200
     55 H17        127.1700   171.6950   190.0010 hc         1 X80       0.059200
     56 H18        128.4300   170.4890   189.8430 hc         1 X80       0.059200
     57 H19        128.6140   172.2980   188.2050 h1         1 X80       0.065700
     58 H20        134.7970   169.1040   184.9100 ha         1 X80       0.134000
     59 H21        134.2590   164.0100   181.0300 h1         1 X80       0.062200
     60 H22        133.7210   165.4930   180.2470 h1         1 X80       0.062200
     61 H23        131.5700   165.3710   181.5100 hc         1 X80       0.059700
     62 H24        132.4800   163.0320   179.8360 hc         1 X80       0.046700
     63 H25        131.2060   164.1880   179.5110 hc         1 X80       0.046700
     64 H26        129.6680   162.6850   180.5230 hc         1 X80       0.044700
     65 H27        130.9960   161.5920   180.8420 hc         1 X80       0.044700
     66 H28        129.8590   163.7310   182.6540 hc         1 X80       0.044700
     67 H29        130.4590   162.1430   183.1080 hc         1 X80       0.044700
     68 H30        132.0470   164.2330   183.6130 hc         1 X80       0.046700
     69 H31        132.7860   162.8760   182.7650 hc         1 X80       0.046700
     70 H32        132.7100   167.3200   180.8040 ha         1 X80       0.145000
     71 H34        130.7900   171.6720   189.9960 hn         1 X80       0.495000
     72 H35        135.2810   171.2240   184.1020 hn         1 X80       0.346500
@<TRIPOS>BOND
     1     1     5 ar  
     2     1    14 ar  
     3     1    39 1   
     4     2     3 ar  
     5     2     4 ar  
     6     2    28 1   
     7     3    14 ar  
     8     3    40 1   
     9     4     5 ar  
    10     4    37 1   
    11     5    41 1   
    12     6    30 1   
    13     6    42 1   
    14     6    43 1   
    15     6    44 1   
    16     7    30 1   
    17     7    45 1   
    18     7    46 1   
    19     7    47 1   
    20     8     9 1   
    21     8    13 1   
    22     8    30 1   
    23     8    48 1   
    24     9    10 1   
    25     9    49 1   
    26     9    50 1   
    27    10    11 1   
    28    10    51 1   
    29    10    52 1   
    30    11    12 1   
    31    11    53 1   
    32    11    54 1   
    33    12    13 1   
    34    12    55 1   
    35    12    56 1   
    36    13    31 1   
    37    13    57 1   
    38    14    31 1   
    39    15    16 1   
    40    15    32 1   
    41    15    35 2   
    42    16    17 ar  
    43    16    27 ar  
    44    17    18 ar  
    45    17    58 1   
    46    18    19 ar  
    47    18    38 1   
    48    19    26 ar  
    49    19    36 1   
    50    20    21 1   
    51    20    36 1   
    52    20    59 1   
    53    20    60 1   
    54    21    22 1   
    55    21    25 1   
    56    21    61 1   
    57    22    23 1   
    58    22    62 1   
    59    22    63 1   
    60    23    24 1   
    61    23    64 1   
    62    23    65 1   
    63    24    25 1   
    64    24    66 1   
    65    24    67 1   
    66    25    68 1   
    67    25    69 1   
    68    26    27 ar  
    69    26    70 1   
    70    27    29 1   
    71    31    71 1   
    72    32    37 1   
    73    32    72 1   
    74    33    37 2   
    75    34    37 2   
@<TRIPOS>SUBSTRUCTURE
     1 X80         1 TEMP              0 ****  ****    0 ROOT
