@<TRIPOS>MOLECULE
X84
   44    45     1     0     0
SMALL
No Charge or Current Charge


@<TRIPOS>ATOM
      1 N01          1.7810    -0.0930    -0.2160 nu         1 X84      -0.951200
      2 N02          1.2140    -4.2610     0.4490 nt         1 X84      -0.593000
      3 N03          5.6320     2.2340    -0.9980 nb         1 X84      -0.663000
      4 N04         -2.9320     0.6930    -0.1400 nu         1 X84      -0.944200
      5 N05         -3.4840    -2.1390     0.2660 no         1 X84       0.719200
      6 C06         -1.0190    -2.4670     0.2250 ca         1 X84       0.073000
      7 C07          0.3090    -1.9990     0.1060 ca         1 X84      -0.304600
      8 C08          0.5080    -0.6200    -0.0890 ca         1 X84       0.473000
      9 C09         -0.5740     0.2530    -0.1700 ca         1 X84      -0.361000
     10 C10         -1.8810    -0.2110    -0.0430 ca         1 X84       0.486000
     11 C11         -2.1120    -1.5790     0.1560 ca         1 X84      -0.358200
     12 C13          2.2540     1.1600     0.3700 c3         1 X84       0.279100
     13 C14          3.7540     1.2540     0.1930 ca         1 X84      -0.170300
     14 C15          4.3000     2.1000    -0.7910 ca         1 X84       0.354900
     15 C16          6.4670     1.5140    -0.2130 ca         1 X84       0.347900
     16 C17          6.0100     0.6460     0.7930 ca         1 X84      -0.164000
     17 C18          4.6290     0.5100     1.0060 ca         1 X84      -0.052000
     18 C19         -2.8620     2.1590    -0.2040 c3         1 X84       0.225800
     19 C20         -4.2760     2.7610    -0.2480 c3         1 X84      -0.104400
     20 C21         -4.2560     4.2980    -0.3250 c3         1 X84       0.169600
     21 O22          2.6320    -2.6380     0.0110 o          1 X84      -0.646100
     22 O23         -5.5980     4.7940    -0.3620 oh         1 X84      -0.656000
     23 O24         -3.6630    -3.3010    -0.1190 o          1 X84      -0.441500
     24 O25         -4.3630    -1.4600     0.8110 o          1 X84      -0.441500
     25 HN01         2.4780    -0.8490    -0.2200 hn         1 X84       0.542000
     26 H102         0.2730    -4.5810     0.6070 hn         1 X84       0.318500
     27 H202         1.9870    -4.9060     0.4980 hn         1 X84       0.318500
     28 HN04        -3.8350     0.2880     0.1210 hn         1 X84       0.537000
     29 H06         -1.2170    -3.5260     0.3750 ha         1 X84       0.142000
     30 H09         -0.3900     1.3050    -0.3430 ha         1 X84       0.121000
     31 H113         1.7650     2.0210    -0.1070 h1         1 X84       0.050700
     32 H213         2.0150     1.1900     1.4430 h1         1 X84       0.050700
     33 H15          3.6530     2.6910    -1.4380 h4         1 X84       0.020100
     34 H16          7.5340     1.6370    -0.3970 h4         1 X84       0.022100
     35 H17          6.7230     0.0900     1.3960 ha         1 X84       0.128000
     36 H18          4.2490    -0.1560     1.7800 ha         1 X84       0.125000
     37 H119        -2.3300     2.5480     0.6760 h1         1 X84       0.044700
     38 H219        -2.3090     2.4690    -1.1020 h1         1 X84       0.044700
     39 H120        -4.8120     2.3650    -1.1190 hc         1 X84       0.068700
     40 H220        -4.8300     2.4540     0.6470 hc         1 X84       0.068700
     41 H121        -3.7260     4.6990     0.5490 h1         1 X84       0.017200
     42 H221        -3.7110     4.6100    -1.2260 h1         1 X84       0.017200
     43 HO23        -5.5380     5.7750    -0.4120 ho         1 X84       0.447000
     44 C12          1.4690    -2.9650     0.1830 c          1 X84       0.638700
@<TRIPOS>BOND
     1     1     8 1   
     2     1    12 1   
     3     1    25 1   
     4     2    26 1   
     5     2    27 1   
     6     2    44 1   
     7     3    14 ar  
     8     3    15 ar  
     9     4    10 1   
    10     4    18 1   
    11     4    28 1   
    12     5    11 1   
    13     5    23 1   
    14     5    24 1   
    15     6     7 ar  
    16     6    11 ar  
    17     6    29 1   
    18     7     8 ar  
    19     7    44 1   
    20     8     9 ar  
    21     9    10 ar  
    22     9    30 1   
    23    10    11 ar  
    24    12    13 1   
    25    12    31 1   
    26    12    32 1   
    27    13    14 ar  
    28    13    17 ar  
    29    14    33 1   
    30    15    16 ar  
    31    15    34 1   
    32    16    17 ar  
    33    16    35 1   
    34    17    36 1   
    35    18    19 1   
    36    18    37 1   
    37    18    38 1   
    38    19    20 1   
    39    19    39 1   
    40    19    40 1   
    41    20    22 1   
    42    20    41 1   
    43    20    42 1   
    44    21    44 2   
    45    22    43 1   
@<TRIPOS>SUBSTRUCTURE
     1 X84         1 TEMP              0 ****  ****    0 ROOT
