@<TRIPOS>MOLECULE
X84
   44    45     1     0     0
SMALL
bcc


@<TRIPOS>ATOM
      1 N01          1.7600    -0.2290    -0.1280 nu         1 X84      -0.757600
      2 N02          1.1120    -4.2980     0.5420 nt         1 X84      -0.660000
      3 N03          5.6840     1.9990    -1.0250 nb         1 X84      -0.663000
      4 N04         -2.9090     0.6440    -0.0260 nu         1 X84      -0.750600
      5 N05         -3.4250    -2.2560    -0.0050 no         1 X84       0.339200
      6 C06         -1.0440    -2.5380     0.0080 ca         1 X84       0.055000
      7 C07          0.2600    -2.1120    -0.0050 ca         1 X84      -0.304600
      8 C08          0.5030    -0.6960    -0.0820 ca         1 X84       0.334600
      9 C09         -0.5860     0.1740    -0.0790 ca         1 X84      -0.379000
     10 C10         -1.9190    -0.2560    -0.0320 ca         1 X84       0.347600
     11 C11         -2.1380    -1.6720    -0.0060 ca         1 X84      -0.358200
     12 C13          2.1100     1.1700    -0.1990 c3         1 X84       0.279100
     13 C14          3.5950     1.3290    -0.0540 ca         1 X84      -0.235600
     14 C15          4.3670     1.8400    -1.0890 ca         1 X84       0.420200
     15 C16          6.2960     1.6410     0.0960 ca         1 X84       0.413200
     16 C17          5.6270     1.1150     1.1920 ca         1 X84      -0.247300
     17 C18          4.2540     0.9580     1.1150 ca         1 X84      -0.070000
     18 C19         -2.7170     2.0750    -0.0680 c3         1 X84       0.225800
     19 C20         -4.0630     2.7740     0.0250 c3         1 X84      -0.104400
     20 C21         -3.9110     4.2810    -0.0400 c3         1 X84       0.146400
     21 O22          2.4950    -2.8120    -0.4120 o          1 X84      -0.646100
     22 O23         -5.1920     4.8630     0.0480 oh         1 X84      -0.593800
     23 O24         -3.5320    -3.4690    -0.0090 o          1 X84      -0.251500
     24 O25         -4.4130    -1.5310     0.0030 o          1 X84      -0.251500
     25 HN01         2.4790    -0.9180    -0.3090 hn         1 X84       0.486800
     26 H102         0.2850    -4.4920     1.0800 hn         1 X84       0.318500
     27 H202         1.8500    -4.9820     0.5860 hn         1 X84       0.318500
     28 HN04        -3.8510     0.2900    -0.0130 hn         1 X84       0.481800
     29 H06         -1.2510    -3.5980     0.0100 ha         1 X84       0.160000
     30 H09         -0.4030     1.2360    -0.1420 ha         1 X84       0.139000
     31 H113         1.7780     1.6200    -1.1410 h1         1 X84       0.050700
     32 H213         1.6080     1.7160     0.6060 h1         1 X84       0.050700
     33 H15          3.8890     2.1370    -2.0180 h4         1 X84       0.020100
     34 H16          7.3720     1.7750     0.1260 h4         1 X84       0.022100
     35 H17          6.1720     0.8380     2.0840 ha         1 X84       0.146000
     36 H18          3.7010     0.5540     1.9540 ha         1 X84       0.143000
     37 H119        -2.0770     2.3960     0.7610 h1         1 X84       0.044700
     38 H219        -2.2080     2.3650    -0.9940 h1         1 X84       0.044700
     39 H120        -4.7060     2.4370    -0.7930 hc         1 X84       0.068700
     40 H220        -4.5510     2.4940     0.9630 hc         1 X84       0.068700
     41 H121        -3.2590     4.6170     0.7780 h1         1 X84       0.017200
     42 H221        -3.4090     4.5550    -0.9770 h1         1 X84       0.017200
     43 HO23        -5.0900     5.8190     0.0210 ho         1 X84       0.408000
     44 C12          1.3770    -3.0890     0.0250 c          1 X84       0.705700
@<TRIPOS>BOND
     1     1     8 1   
     2     1    12 1   
     3     1    25 1   
     4     2    26 1   
     5     2    27 1   
     6     2    44 1   
     7     3    14 ar  
     8     3    15 ar  
     9     4    10 1   
    10     4    18 1   
    11     4    28 1   
    12     5    11 1   
    13     5    23 1   
    14     5    24 1   
    15     6     7 ar  
    16     6    11 ar  
    17     6    29 1   
    18     7     8 ar  
    19     7    44 1   
    20     8     9 ar  
    21     9    10 ar  
    22     9    30 1   
    23    10    11 ar  
    24    12    13 1   
    25    12    31 1   
    26    12    32 1   
    27    13    14 ar  
    28    13    17 ar  
    29    14    33 1   
    30    15    16 ar  
    31    15    34 1   
    32    16    17 ar  
    33    16    35 1   
    34    17    36 1   
    35    18    19 1   
    36    18    37 1   
    37    18    38 1   
    38    19    20 1   
    39    19    39 1   
    40    19    40 1   
    41    20    22 1   
    42    20    41 1   
    43    20    42 1   
    44    21    44 2   
    45    22    43 1   
@<TRIPOS>SUBSTRUCTURE
     1 X84         1 TEMP              0 ****  ****    0 ROOT
