@<TRIPOS>MOLECULE
X85
   56    58     1     0     0
SMALL
No Charge or Current Charge


@<TRIPOS>ATOM
      1 C1          -0.9180    -0.3260     0.1800 ca         1 X85      -0.364000
      2 C2          -0.0420    -1.4030     0.0710 ca         1 X85       0.486000
      3 C3          -0.5560    -2.6970    -0.0850 ca         1 X85      -0.358200
      4 C4          -1.9510    -2.8920    -0.1290 ca         1 X85       0.074000
      5 C5          -2.8430    -1.8020    -0.0280 ca         1 X85      -0.304600
      6 C6          -2.2970    -0.5140     0.1230 ca         1 X85       0.474000
      7 C7          -4.3370    -2.0290    -0.0780 c          1 X85       0.639700
      8 N8          -4.7930    -3.2770    -0.2990 nt         1 X85      -0.593000
      9 O9          -5.1600    -1.1420     0.0770 o          1 X85      -0.649100
     10 N10          0.3270    -3.8900    -0.1740 no         1 X85       0.719200
     11 O11          1.4230    -3.7790    -0.7370 o          1 X85      -0.443000
     12 O12         -0.1160    -4.9640     0.2480 o          1 X85      -0.443000
     13 N13         -3.1120     0.5990     0.2300 nu         1 X85      -0.949200
     14 C14         -2.8750     1.8990    -0.3960 c3         1 X85       0.280100
     15 N15          1.3260    -1.1720     0.1420 nu         1 X85      -0.944200
     16 C16          2.0260     0.1200     0.1660 c3         1 X85       0.223800
     17 C17          3.5480    -0.0950     0.1860 c3         1 X85      -0.097400
     18 C18          4.3260     1.2380     0.2190 c3         1 X85       0.172800
     19 C19          7.9980     2.2550     0.8480 c6         1 X85       0.153100
     20 C20          6.4610     2.4120     0.6420 c6         1 X85       0.125300
     21 N21          5.7930     1.0960     0.3910 n3         1 X85      -0.713600
     22 C22          6.4750     0.3700    -0.7300 c6         1 X85       0.125300
     23 C23          8.0130     0.2590    -0.5000 c6         1 X85       0.153100
     24 O24          8.5870     1.5700    -0.2830 os         1 X85      -0.448000
     25 C25         -6.2890     4.3970     0.1660 ca         1 X85       0.348900
     26 N26         -5.1920     4.6010     0.9320 nb         1 X85      -0.664000
     27 C27         -4.1250     3.7920     0.7330 ca         1 X85       0.357900
     28 C28         -4.1080     2.7610    -0.2260 ca         1 X85      -0.173300
     29 C29         -5.2520     2.5560    -1.0200 ca         1 X85      -0.052000
     30 C30         -6.3600     3.3930    -0.8140 ca         1 X85      -0.163000
     31 H1          -0.5290     0.6740     0.3190 ha         1 X85       0.121000
     32 H4          -2.3320    -3.9050    -0.2450 ha         1 X85       0.141000
     33 H1N8        -4.1560    -4.0430    -0.4410 hn         1 X85       0.318500
     34 H2N8        -5.7900    -3.4290    -0.3300 hn         1 X85       0.318500
     35 HN13        -4.0990     0.3130     0.2550 hn         1 X85       0.543000
     36 H114        -2.0050     2.3960     0.0560 h1         1 X85       0.050700
     37 H214        -2.6700     1.7710    -1.4680 h1         1 X85       0.050700
     38 HN15         1.8860    -1.9920    -0.1020 hn         1 X85       0.536000
     39 H116         1.7560     0.7100    -0.7210 h1         1 X85       0.045200
     40 H216         1.7300     0.6910     1.0580 h1         1 X85       0.045200
     41 H117         3.8190    -0.6870     1.0680 hc         1 X85       0.062200
     42 H217         3.8360    -0.6700    -0.7010 hc         1 X85       0.062200
     43 H118         4.1090     1.7950    -0.7030 h1         1 X85       0.031700
     44 H218         3.9260     1.8330     1.0520 h1         1 X85       0.031700
     45 H219         8.1970     1.6820     1.7650 h1         1 X85       0.052450
     46 H120         6.0350     2.8920     1.5350 h1         1 X85       0.041200
     47 H220         6.2890     3.0950    -0.2030 h1         1 X85       0.041200
     48 H122         6.0750    -0.6480    -0.8370 h1         1 X85       0.041200
     49 H222         6.2990     0.8880    -1.6840 h1         1 X85       0.041200
     50 H123         8.2160    -0.3750     0.3750 h1         1 X85       0.052450
     51 H223         8.4900    -0.2030    -1.3750 h1         1 X85       0.052450
     52 H25         -7.1360     5.0600     0.3440 h4         1 X85       0.023100
     53 H27         -3.2570     3.9790     1.3640 h4         1 X85       0.020100
     54 H29         -5.2810     1.7710    -1.7730 ha         1 X85       0.125000
     55 H30         -7.2650     3.2720    -1.4030 ha         1 X85       0.129000
     56 H119         8.4640     3.2440     0.9530 h1         1 X85       0.052450
@<TRIPOS>BOND
     1     1     2 ar  
     2     1     6 ar  
     3     1    31 1   
     4     2     3 ar  
     5     2    15 1   
     6     3     4 ar  
     7     3    10 1   
     8     4     5 ar  
     9     4    32 1   
    10     5     6 ar  
    11     5     7 1   
    12     6    13 1   
    13     7     8 1   
    14     7     9 2   
    15     8    33 1   
    16     8    34 1   
    17    10    11 1   
    18    10    12 1   
    19    13    14 1   
    20    13    35 1   
    21    14    28 1   
    22    14    36 1   
    23    14    37 1   
    24    15    16 1   
    25    15    38 1   
    26    16    17 1   
    27    16    39 1   
    28    16    40 1   
    29    17    18 1   
    30    17    41 1   
    31    17    42 1   
    32    18    21 1   
    33    18    43 1   
    34    18    44 1   
    35    19    20 1   
    36    19    24 1   
    37    19    45 1   
    38    19    56 1   
    39    20    21 1   
    40    20    46 1   
    41    20    47 1   
    42    21    22 1   
    43    22    23 1   
    44    22    48 1   
    45    22    49 1   
    46    23    24 1   
    47    23    50 1   
    48    23    51 1   
    49    25    26 ar  
    50    25    30 ar  
    51    25    52 1   
    52    26    27 ar  
    53    27    28 ar  
    54    27    53 1   
    55    28    29 ar  
    56    29    30 ar  
    57    29    54 1   
    58    30    55 1   
@<TRIPOS>SUBSTRUCTURE
     1 X85         1 TEMP              0 ****  ****    0 ROOT
