@<TRIPOS>MOLECULE
X85
   56    58     1     0     0
SMALL
abcg2


@<TRIPOS>ATOM
      1 C1          -0.8750    -0.4980    -0.0270 ca         1 X85      -0.364000
      2 C2           0.0070    -1.5860    -0.0470 ca         1 X85       0.486000
      3 C3          -0.5850    -2.8880    -0.1340 ca         1 X85      -0.358200
      4 C4          -1.9740    -3.0140    -0.1680 ca         1 X85       0.074000
      5 C5          -2.8360    -1.9480    -0.1200 ca         1 X85      -0.304600
      6 C6          -2.2640    -0.6290    -0.0770 ca         1 X85       0.474000
      7 C7          -4.3050    -2.1540    -0.1520 c          1 X85       0.639700
      8 N8          -4.7620    -3.3640     0.2070 nt         1 X85      -0.593000
      9 O9          -5.0780    -1.2600    -0.5020 o          1 X85      -0.649100
     10 N10          0.1740    -4.0790    -0.2030 no         1 X85       0.719200
     11 O11          1.3970    -4.0140    -0.1500 o          1 X85      -0.443000
     12 O12         -0.3980    -5.1480    -0.3110 o          1 X85      -0.443000
     13 N13         -3.0500     0.4560    -0.0590 nu         1 X85      -0.949200
     14 C14         -2.5560     1.8140    -0.0120 c3         1 X85       0.280100
     15 N15          1.3270    -1.3710     0.0040 nu         1 X85      -0.944200
     16 C16          1.9330    -0.0600     0.0280 c3         1 X85       0.223800
     17 C17          3.4460    -0.1760     0.1110 c3         1 X85      -0.097400
     18 C18          4.0920     1.1980    -0.0100 c3         1 X85       0.172800
     19 C19          7.4960     2.5350     0.7450 c6         1 X85       0.153100
     20 C20          6.0210     2.5520     0.3960 c6         1 X85       0.125300
     21 N21          5.5110     1.1970     0.2820 n3         1 X85      -0.713600
     22 C22          6.2910     0.4620    -0.6970 c6         1 X85       0.125300
     23 C23          7.7620     0.4950    -0.3270 c6         1 X85       0.153100
     24 O24          8.2450     1.8150    -0.2090 os         1 X85      -0.448000
     25 C25         -5.8240     4.4790     0.1610 ca         1 X85       0.348900
     26 N26         -5.1550     4.2040     1.2740 nb         1 X85      -0.664000
     27 C27         -4.1270     3.3690     1.1880 ca         1 X85       0.357900
     28 C28         -3.7090     2.7720     0.0040 ca         1 X85      -0.173300
     29 C29         -4.4190     3.0740    -1.1530 ca         1 X85      -0.052000
     30 C30         -5.4960     3.9410    -1.0750 ca         1 X85      -0.163000
     31 H1          -0.4570     0.4960     0.0170 ha         1 X85       0.121000
     32 H4          -2.3730    -4.0140    -0.2540 ha         1 X85       0.141000
     33 H1N8        -4.1960    -4.0470     0.6770 hn         1 X85       0.318500
     34 H2N8        -5.7560    -3.5280     0.2040 hn         1 X85       0.318500
     35 HN13        -4.0380     0.2960    -0.2020 hn         1 X85       0.543000
     36 H114        -1.9400     1.9590     0.8800 h1         1 X85       0.050700
     37 H214        -1.9130     2.0180    -0.8750 h1         1 X85       0.050700
     38 HN15         1.9300    -2.1760    -0.0460 hn         1 X85       0.536000
     39 H116         1.6490     0.5010    -0.8690 h1         1 X85       0.045200
     40 H216         1.5640     0.5090     0.8880 h1         1 X85       0.045200
     41 H117         3.7310    -0.6280     1.0650 hc         1 X85       0.062200
     42 H217         3.7980    -0.8400    -0.6820 hc         1 X85       0.062200
     43 H118         3.8830     1.6090    -1.0130 h1         1 X85       0.031700
     44 H218         3.6120     1.8740     0.7050 h1         1 X85       0.031700
     45 H219         7.6310     2.1010     1.7460 h1         1 X85       0.052450
     46 H120         5.4770     3.0770     1.1860 h1         1 X85       0.041200
     47 H220         5.8750     3.1270    -0.5350 h1         1 X85       0.041200
     48 H122         5.9750    -0.5830    -0.7240 h1         1 X85       0.041200
     49 H222         6.1540     0.8680    -1.7150 h1         1 X85       0.041200
     50 H123         7.9100    -0.0530     0.6150 h1         1 X85       0.052450
     51 H223         8.3520    -0.0010    -1.0990 h1         1 X85       0.052450
     52 H25         -6.6610     5.1610     0.2540 h4         1 X85       0.023100
     53 H27         -3.5950     3.1590     2.1110 h4         1 X85       0.020100
     54 H29         -4.1310     2.6380    -2.1020 ha         1 X85       0.125000
     55 H30         -6.0720     4.2000    -1.9530 ha         1 X85       0.129000
     56 H119         7.8860     3.5540     0.7670 h1         1 X85       0.052450
@<TRIPOS>BOND
     1     1     2 ar  
     2     1     6 ar  
     3     1    31 1   
     4     2     3 ar  
     5     2    15 1   
     6     3     4 ar  
     7     3    10 1   
     8     4     5 ar  
     9     4    32 1   
    10     5     6 ar  
    11     5     7 1   
    12     6    13 1   
    13     7     8 1   
    14     7     9 2   
    15     8    33 1   
    16     8    34 1   
    17    10    11 1   
    18    10    12 1   
    19    13    14 1   
    20    13    35 1   
    21    14    28 1   
    22    14    36 1   
    23    14    37 1   
    24    15    16 1   
    25    15    38 1   
    26    16    17 1   
    27    16    39 1   
    28    16    40 1   
    29    17    18 1   
    30    17    41 1   
    31    17    42 1   
    32    18    21 1   
    33    18    43 1   
    34    18    44 1   
    35    19    20 1   
    36    19    24 1   
    37    19    45 1   
    38    19    56 1   
    39    20    21 1   
    40    20    46 1   
    41    20    47 1   
    42    21    22 1   
    43    22    23 1   
    44    22    48 1   
    45    22    49 1   
    46    23    24 1   
    47    23    50 1   
    48    23    51 1   
    49    25    26 ar  
    50    25    30 ar  
    51    25    52 1   
    52    26    27 ar  
    53    27    28 ar  
    54    27    53 1   
    55    28    29 ar  
    56    29    30 ar  
    57    29    54 1   
    58    30    55 1   
@<TRIPOS>SUBSTRUCTURE
     1 X85         1 TEMP              0 ****  ****    0 ROOT
