@<TRIPOS>MOLECULE
X86
   47    48     1     0     0
SMALL
No Charge or Current Charge


@<TRIPOS>ATOM
      1 N01          2.0690     0.0110    -0.2840 nu         1 X86      -0.950200
      2 N02          2.3090    -4.2140     0.1870 nt         1 X86      -0.591000
      3 N03          5.9020     2.1880     1.1550 nb         1 X86      -0.664000
      4 N04         -2.7060    -0.1110    -0.1110 nu         1 X86      -0.945200
      5 N05         -2.7060    -3.0110     0.1730 no         1 X86       0.719200
      6 C06         -0.2250    -2.8640     0.0860 ca         1 X86       0.075000
      7 C07          0.9880    -2.1500    -0.0300 ca         1 X86      -0.305600
      8 C08          0.9200    -0.7510    -0.1640 ca         1 X86       0.475000
      9 C09         -0.3090    -0.0950    -0.1910 ca         1 X86      -0.365000
     10 C10         -1.5020    -0.8030    -0.0690 ca         1 X86       0.486000
     11 C11         -1.4670    -2.1970     0.0710 ca         1 X86      -0.360200
     12 C13          2.2980     1.3330     0.3000 c3         1 X86       0.281100
     13 C14          3.7530     1.7160     0.1230 ca         1 X86      -0.173300
     14 C15          4.5960     1.8410     1.2440 ca         1 X86       0.356900
     15 C16          6.4090     2.4230    -0.0780 ca         1 X86       0.348900
     16 C17          5.6410     2.3240    -1.2500 ca         1 X86      -0.164000
     17 C18          4.2870     1.9660    -1.1540 ca         1 X86      -0.051000
     18 C19         -2.9140     1.3430    -0.1040 c3         1 X86       0.225800
     19 C20         -4.4160     1.6680    -0.1030 c3         1 X86      -0.101400
     20 C21         -4.6860     3.1830    -0.1060 c3         1 X86       0.163600
     21 C22         -6.5270     4.7480    -0.1050 c3         1 X86       0.145900
     22 O23          3.3890    -2.3330    -0.1720 o          1 X86      -0.649100
     23 O24         -2.6710    -4.1680    -0.2610 o          1 X86      -0.442500
     24 O25         -3.6860    -2.5330     0.7590 o          1 X86      -0.442500
     25 O26         -6.1100     3.3720    -0.1030 os         1 X86      -0.450000
     26 HN01         2.8990    -0.5950    -0.3200 hn         1 X86       0.545000
     27 H102         1.4470    -4.7140     0.3320 hn         1 X86       0.317500
     28 H202         3.1900    -4.7040     0.1980 hn         1 X86       0.317500
     29 HN04        -3.5100    -0.6910     0.1430 hn         1 X86       0.538000
     30 H06         -0.2170    -3.9470     0.1900 ha         1 X86       0.141000
     31 H09         -0.3300     0.9790    -0.3190 ha         1 X86       0.120000
     32 H113         1.6630     2.0860    -0.1880 h1         1 X86       0.050700
     33 H213         2.0440     1.3210     1.3700 h1         1 X86       0.050700
     34 H15          4.2170     1.6580     2.2490 h4         1 X86       0.020100
     35 H16          7.4620     2.7000    -0.1260 h4         1 X86       0.023100
     36 H17          6.0960     2.5250    -2.2160 ha         1 X86       0.129000
     37 H18          3.6690     1.8820    -2.0470 ha         1 X86       0.125000
     38 H119        -2.4470     1.7850     0.7870 h1         1 X86       0.044700
     39 H219        -2.4480     1.7930    -0.9920 h1         1 X86       0.044700
     40 H120        -4.8860     1.2200    -0.9860 hc         1 X86       0.068200
     41 H220        -4.8850     1.2240     0.7840 hc         1 X86       0.068200
     42 H121        -4.2320     3.6400     0.7840 h1         1 X86       0.020700
     43 H221        -4.2360     3.6360    -1.0000 h1         1 X86       0.020700
     44 H122        -6.1560     5.2670    -0.9990 h1         1 X86       0.030367
     45 H222        -7.6230     4.8140    -0.1030 h1         1 X86       0.030367
     46 H322        -6.1510     5.2720     0.7830 h1         1 X86       0.030367
     47 C12          2.3110    -2.8810    -0.0110 c          1 X86       0.638700
@<TRIPOS>BOND
     1     1     8 1   
     2     1    12 1   
     3     1    26 1   
     4     2    27 1   
     5     2    28 1   
     6     2    47 1   
     7     3    14 ar  
     8     3    15 ar  
     9     4    10 1   
    10     4    18 1   
    11     4    29 1   
    12     5    11 1   
    13     5    23 1   
    14     5    24 1   
    15     6     7 ar  
    16     6    11 ar  
    17     6    30 1   
    18     7     8 ar  
    19     7    47 1   
    20     8     9 ar  
    21     9    10 ar  
    22     9    31 1   
    23    10    11 ar  
    24    12    13 1   
    25    12    32 1   
    26    12    33 1   
    27    13    14 ar  
    28    13    17 ar  
    29    14    34 1   
    30    15    16 ar  
    31    15    35 1   
    32    16    17 ar  
    33    16    36 1   
    34    17    37 1   
    35    18    19 1   
    36    18    38 1   
    37    18    39 1   
    38    19    20 1   
    39    19    40 1   
    40    19    41 1   
    41    20    25 1   
    42    20    42 1   
    43    20    43 1   
    44    21    25 1   
    45    21    44 1   
    46    21    45 1   
    47    21    46 1   
    48    22    47 2   
@<TRIPOS>SUBSTRUCTURE
     1 X86         1 TEMP              0 ****  ****    0 ROOT
