@<TRIPOS>MOLECULE
X86
   47    48     1     0     0
SMALL
bcc


@<TRIPOS>ATOM
      1 N01          2.0270    -0.0710     0.0520 nu         1 X86      -0.756600
      2 N02          2.2190    -4.2460     0.4610 nt         1 X86      -0.658000
      3 N03          5.4440     2.6530     1.0870 nb         1 X86      -0.664000
      4 N04         -2.7170    -0.2120    -0.1010 nu         1 X86      -0.751600
      5 N05         -2.5970    -3.1460    -0.3140 no         1 X86       0.339200
      6 C06         -0.2170    -2.9250    -0.1160 ca         1 X86       0.057000
      7 C07          0.9640    -2.2370     0.0010 ca         1 X86      -0.305600
      8 C08          0.9040    -0.7990     0.0090 ca         1 X86       0.336600
      9 C09         -0.3470    -0.1790    -0.0050 ca         1 X86      -0.383000
     10 C10         -1.5570    -0.8790    -0.0910 ca         1 X86       0.347600
     11 C11         -1.4670    -2.3080    -0.1740 ca         1 X86      -0.360200
     12 C13          2.0640     1.3740     0.0560 c3         1 X86       0.281100
     13 C14          3.4860     1.8420    -0.0350 ca         1 X86      -0.238600
     14 C15          4.1790     2.2500     1.0980 ca         1 X86       0.422200
     15 C16          6.0810     2.6630    -0.0770 ca         1 X86       0.414200
     16 C17          5.4880     2.2750    -1.2710 ca         1 X86      -0.247300
     17 C18          4.1680     1.8560    -1.2460 ca         1 X86      -0.069000
     18 C19         -2.8330     1.2260    -0.0170 c3         1 X86       0.225800
     19 C20         -4.2980     1.6290    -0.0220 c3         1 X86      -0.101400
     20 C21         -4.4440     3.1370     0.0600 c3         1 X86       0.140400
     21 C22         -6.0350     4.8480     0.1170 c3         1 X86       0.122700
     22 O23          3.3300    -2.4040    -0.1710 o          1 X86      -0.649100
     23 O24         -2.4400    -4.3500    -0.4120 o          1 X86      -0.252500
     24 O25         -3.7160    -2.6470    -0.3340 o          1 X86      -0.252500
     25 O26         -5.8100     3.4640     0.0530 os         1 X86      -0.403600
     26 HN01         2.8940    -0.5890    -0.0110 hn         1 X86       0.489800
     27 H102         1.4070    -4.6730     0.8710 hn         1 X86       0.317500
     28 H202         3.0870    -4.7470     0.5610 hn         1 X86       0.317500
     29 HN04        -3.5590    -0.7570    -0.1860 hn         1 X86       0.482800
     30 H06         -0.1990    -4.0030    -0.1830 ha         1 X86       0.159000
     31 H09         -0.3870     0.8970     0.0410 ha         1 X86       0.138000
     32 H113         1.4930     1.7710    -0.7900 h1         1 X86       0.050700
     33 H213         1.5980     1.7680     0.9650 h1         1 X86       0.050700
     34 H15          3.6790     2.2520     2.0620 h4         1 X86       0.020100
     35 H16          7.1120     2.9970    -0.0640 h4         1 X86       0.023100
     36 H17          6.0500     2.3070    -2.1940 ha         1 X86       0.147000
     37 H18          3.6720     1.5510    -2.1600 ha         1 X86       0.143000
     38 H119        -2.3510     1.5890     0.8980 h1         1 X86       0.044700
     39 H219        -2.3150     1.6990    -0.8590 h1         1 X86       0.044700
     40 H120        -4.7750     1.2640    -0.9350 hc         1 X86       0.068200
     41 H220        -4.8080     1.1650     0.8270 hc         1 X86       0.068200
     42 H121        -3.9590     3.5110     0.9740 h1         1 X86       0.020700
     43 H221        -3.9260     3.6100    -0.7870 h1         1 X86       0.020700
     44 H122        -5.5970     5.3780    -0.7380 h1         1 X86       0.030367
     45 H222        -7.1120     5.0160     0.1080 h1         1 X86       0.030367
     46 H322        -5.6240     5.2910     1.0320 h1         1 X86       0.030367
     47 C12          2.2590    -2.9570     0.0890 c          1 X86       0.705700
@<TRIPOS>BOND
     1     1     8 1   
     2     1    12 1   
     3     1    26 1   
     4     2    27 1   
     5     2    28 1   
     6     2    47 1   
     7     3    14 ar  
     8     3    15 ar  
     9     4    10 1   
    10     4    18 1   
    11     4    29 1   
    12     5    11 1   
    13     5    23 1   
    14     5    24 1   
    15     6     7 ar  
    16     6    11 ar  
    17     6    30 1   
    18     7     8 ar  
    19     7    47 1   
    20     8     9 ar  
    21     9    10 ar  
    22     9    31 1   
    23    10    11 ar  
    24    12    13 1   
    25    12    32 1   
    26    12    33 1   
    27    13    14 ar  
    28    13    17 ar  
    29    14    34 1   
    30    15    16 ar  
    31    15    35 1   
    32    16    17 ar  
    33    16    36 1   
    34    17    37 1   
    35    18    19 1   
    36    18    38 1   
    37    18    39 1   
    38    19    20 1   
    39    19    40 1   
    40    19    41 1   
    41    20    25 1   
    42    20    42 1   
    43    20    43 1   
    44    21    25 1   
    45    21    44 1   
    46    21    45 1   
    47    21    46 1   
    48    22    47 2   
@<TRIPOS>SUBSTRUCTURE
     1 X86         1 TEMP              0 ****  ****    0 ROOT
