@<TRIPOS>MOLECULE
X87
   45    46     1     0     0
SMALL
No Charge or Current Charge


@<TRIPOS>ATOM
      1 N01          1.8280    -0.1480     0.3950 nu         1 X87      -0.949200
      2 N02          1.1020    -4.2580    -0.4460 nt         1 X87      -0.591000
      3 N03          5.9800     1.2690    -1.1050 nb         1 X87      -0.663000
      4 N04         -2.8380     0.7990     0.4940 nu         1 X87      -0.944200
      5 N05         -5.5470     4.9040    -0.1600 n8         1 X87      -0.993200
      6 N06         -3.5160    -1.9950    -0.0200 no         1 X87       0.719200
      7 C07         -1.0630    -2.4120    -0.0470 ca         1 X87       0.074000
      8 C08          0.2830    -1.9910     0.0450 ca         1 X87      -0.304600
      9 C09          0.5350    -0.6280     0.2910 ca         1 X87       0.472000
     10 C10         -0.5160     0.2740     0.4420 ca         1 X87      -0.362000
     11 C11         -1.8370    -0.1470     0.3470 ca         1 X87       0.486000
     12 C12         -2.1230    -1.4960     0.1060 ca         1 X87      -0.359200
     13 C14          2.3170     1.1420    -0.0940 c3         1 X87       0.279100
     14 C15          3.8280     1.1830     0.0200 ca         1 X87      -0.171300
     15 C16          4.6270     1.2230    -1.1390 ca         1 X87       0.356900
     16 C17          6.5810     1.2780     0.1080 ca         1 X87       0.348900
     17 C18          5.8630     1.2430     1.3150 ca         1 X87      -0.165000
     18 C19          4.4600     1.1960     1.2770 ca         1 X87      -0.052000
     19 C20         -2.8520     2.1390    -0.1080 c3         1 X87       0.224800
     20 C21         -4.1920     2.8400     0.1740 c3         1 X87      -0.100400
     21 C22         -4.2510     4.2550    -0.4320 c3         1 X87       0.154800
     22 O23          2.5850    -2.7100     0.0440 o          1 X87      -0.646100
     23 O24         -3.7100    -2.9810    -0.7400 o          1 X87      -0.442500
     24 O25         -4.4020    -1.4650     0.6620 o          1 X87      -0.442500
     25 HN01         2.5060    -0.9190     0.3380 hn         1 X87       0.542000
     26 HN02         0.1470    -4.5350    -0.6030 hn         1 X87       0.317500
     27 HN0A         1.8510    -4.9250    -0.5520 hn         1 X87       0.317500
     28 HN04        -3.7550     0.3710     0.6460 hn         1 X87       0.536000
     29 HN05        -5.6450     5.0440     0.8530 hn         1 X87       0.396500
     30 HN0B        -5.5260     5.8610    -0.5330 hn         1 X87       0.396500
     31 H07         -1.3000    -3.4590    -0.2260 ha         1 X87       0.142000
     32 H10         -0.3040     1.3140     0.6540 ha         1 X87       0.121000
     33 H14          2.0200     1.2840    -1.1430 h1         1 X87       0.050700
     34 H14A         1.8870     1.9650     0.4920 h1         1 X87       0.050700
     35 H16          4.1730     1.2170    -2.1290 h4         1 X87       0.021100
     36 H17          7.6700     1.3150     0.1110 h4         1 X87       0.022100
     37 H18          6.3930     1.2530     2.2630 ha         1 X87       0.128000
     38 H19          3.8790     1.1690     2.1970 ha         1 X87       0.124000
     39 H20         -2.0340     2.7490     0.3000 h1         1 X87       0.044700
     40 H20A        -2.7060     2.0610    -1.1950 h1         1 X87       0.044700
     41 H21         -5.0100     2.2370    -0.2390 hc         1 X87       0.062200
     42 H21A        -4.3440     2.9020     1.2580 hc         1 X87       0.062200
     43 H22         -4.1090     4.1970    -1.5200 h1         1 X87       0.027700
     44 H22A        -3.4490     4.8750    -0.0080 h1         1 X87       0.027700
     45 C13          1.4080    -2.9880    -0.1160 c          1 X87       0.637700
@<TRIPOS>BOND
     1     1     9 1   
     2     1    13 1   
     3     1    25 1   
     4     2    26 1   
     5     2    27 1   
     6     2    45 1   
     7     3    15 ar  
     8     3    16 ar  
     9     4    11 1   
    10     4    19 1   
    11     4    28 1   
    12     5    21 1   
    13     5    29 1   
    14     5    30 1   
    15     6    12 1   
    16     6    23 1   
    17     6    24 1   
    18     7     8 ar  
    19     7    12 ar  
    20     7    31 1   
    21     8     9 ar  
    22     8    45 1   
    23     9    10 ar  
    24    10    11 ar  
    25    10    32 1   
    26    11    12 ar  
    27    13    14 1   
    28    13    33 1   
    29    13    34 1   
    30    14    15 ar  
    31    14    18 ar  
    32    15    35 1   
    33    16    17 ar  
    34    16    36 1   
    35    17    18 ar  
    36    17    37 1   
    37    18    38 1   
    38    19    20 1   
    39    19    39 1   
    40    19    40 1   
    41    20    21 1   
    42    20    41 1   
    43    20    42 1   
    44    21    43 1   
    45    21    44 1   
    46    22    45 2   
@<TRIPOS>SUBSTRUCTURE
     1 X87         1 TEMP              0 ****  ****    0 ROOT
