@<TRIPOS>MOLECULE
X87
   45    46     1     0     0
SMALL
bcc


@<TRIPOS>ATOM
      1 N01          1.7690    -0.2320    -0.0110 nu         1 X87      -0.755600
      2 N02          1.0480    -4.3150     0.5230 nt         1 X87      -0.658000
      3 N03          5.6490     1.8470    -1.1960 nb         1 X87      -0.663000
      4 N04         -2.8900     0.6950    -0.0400 nu         1 X87      -0.750600
      5 N05         -5.1390     5.0160    -0.1780 n8         1 X87      -0.882800
      6 N06         -3.4390    -2.1970    -0.1450 no         1 X87       0.339200
      7 C07         -1.0630    -2.5100    -0.0380 ca         1 X87       0.056000
      8 C08          0.2440    -2.1010     0.0160 ca         1 X87      -0.304600
      9 C09          0.5070    -0.6870    -0.0070 ca         1 X87       0.333600
     10 C10         -0.5720     0.1970    -0.0000 ca         1 X87      -0.380000
     11 C11         -1.9110    -0.2160    -0.0310 ca         1 X87       0.347600
     12 C12         -2.1460    -1.6300    -0.0710 ca         1 X87      -0.359200
     13 C14          2.1260     1.1660    -0.0740 c3         1 X87       0.279100
     14 C15          3.6190     1.3080    -0.0360 ca         1 X87      -0.236600
     15 C16          4.3280     1.7200    -1.1590 ca         1 X87       0.422200
     16 C17          6.3300     1.5580    -0.0950 ca         1 X87       0.414200
     17 C18          5.7270     1.1370     1.0830 ca         1 X87      -0.248300
     18 C19          4.3490     1.0100     1.1100 ca         1 X87      -0.070000
     19 C20         -2.6850     2.1240     0.0260 c3         1 X87       0.224800
     20 C21         -4.0150     2.8450    -0.1150 c3         1 X87      -0.100400
     21 C22         -3.8600     4.3510     0.0200 c3         1 X87       0.154800
     22 O23          2.4860    -2.8150    -0.3240 o          1 X87      -0.646100
     23 O24         -3.5590    -3.4080    -0.1990 o          1 X87      -0.252500
     24 O25         -4.4180    -1.4600    -0.1520 o          1 X87      -0.252500
     25 HN01         2.4860    -0.9250    -0.1780 hn         1 X87       0.486800
     26 HN02         0.2060    -4.5090     1.0370 hn         1 X87       0.317500
     27 HN0A         1.7800    -5.0030     0.5860 hn         1 X87       0.317500
     28 HN04        -3.8360     0.3500    -0.0620 hn         1 X87       0.480800
     29 HN05        -5.7580     4.7850     0.5890 hn         1 X87       0.341300
     30 HN0B        -5.0080     6.0180    -0.1270 hn         1 X87       0.341300
     31 H07         -1.2830    -3.5670    -0.0820 ha         1 X87       0.160000
     32 H10         -0.3730     1.2580     0.0060 ha         1 X87       0.139000
     33 H14          1.7330     1.6340    -0.9850 h1         1 X87       0.050700
     34 H14A         1.6850     1.7030     0.7710 h1         1 X87       0.050700
     35 H16          3.7920     1.9600    -2.0720 h4         1 X87       0.021100
     36 H17          7.4070     1.6650    -0.1480 h4         1 X87       0.022100
     37 H18          6.3270     0.9140     1.9540 ha         1 X87       0.146000
     38 H19          3.8460     0.6860     2.0130 ha         1 X87       0.142000
     39 H20         -2.2070     2.3950     0.9750 h1         1 X87       0.044700
     40 H20A        -2.0100     2.4480    -0.7730 h1         1 X87       0.044700
     41 H21         -4.4540     2.6110    -1.0880 hc         1 X87       0.062200
     42 H21A        -4.7100     2.4810     0.6480 hc         1 X87       0.062200
     43 H22         -3.1660     4.7110    -0.7440 h1         1 X87       0.027700
     44 H22A        -3.3940     4.5770     0.9900 h1         1 X87       0.027700
     45 C13          1.3470    -3.0920     0.0580 c          1 X87       0.704700
@<TRIPOS>BOND
     1     1     9 1   
     2     1    13 1   
     3     1    25 1   
     4     2    26 1   
     5     2    27 1   
     6     2    45 1   
     7     3    15 ar  
     8     3    16 ar  
     9     4    11 1   
    10     4    19 1   
    11     4    28 1   
    12     5    21 1   
    13     5    29 1   
    14     5    30 1   
    15     6    12 1   
    16     6    23 1   
    17     6    24 1   
    18     7     8 ar  
    19     7    12 ar  
    20     7    31 1   
    21     8     9 ar  
    22     8    45 1   
    23     9    10 ar  
    24    10    11 ar  
    25    10    32 1   
    26    11    12 ar  
    27    13    14 1   
    28    13    33 1   
    29    13    34 1   
    30    14    15 ar  
    31    14    18 ar  
    32    15    35 1   
    33    16    17 ar  
    34    16    36 1   
    35    17    18 ar  
    36    17    37 1   
    37    18    38 1   
    38    19    20 1   
    39    19    39 1   
    40    19    40 1   
    41    20    21 1   
    42    20    41 1   
    43    20    42 1   
    44    21    43 1   
    45    21    44 1   
    46    22    45 2   
@<TRIPOS>SUBSTRUCTURE
     1 X87         1 TEMP              0 ****  ****    0 ROOT
