@<TRIPOS>MOLECULE
X88
   31    32     1     0     0
SMALL
No Charge or Current Charge


@<TRIPOS>ATOM
      1 C1          65.0190    44.6760   -46.5160 ca         1 X88      -0.230000
      2 C2          66.2730    44.4060   -45.9580 ca         1 X88       0.034000
      3 C3          67.4390    44.8120   -46.6330 ca         1 X88      -0.262200
      4 C4          67.3250    45.4870   -47.8690 ca         1 X88       0.038000
      5 C5          66.0560    45.7650   -48.4400 ca         1 X88      -0.267600
      6 C6          64.9010    45.3510   -47.7380 ca         1 X88       0.430000
      7 N7          63.6280    45.5980   -48.2420 nu         1 X88      -0.953200
      8 C8          65.9590    46.4880   -49.7660 c          1 X88       0.630700
      9 N9          67.0920    46.9280   -50.3480 nt         1 X88      -0.589000
     10 O10         64.9050    46.6930   -50.3470 o          1 X88      -0.647100
     11 N11         68.7850    44.5260   -46.0450 no         1 X88       0.686200
     12 O12         69.7870    44.9010   -46.6660 o          1 X88      -0.411500
     13 O13         68.8360    43.9290   -44.9630 o          1 X88      -0.411500
     14 C14         62.4260    45.9770   -47.4500 c3         1 X88       0.177500
     15 C15         63.0440    49.4300   -45.0570 ca         1 X88       0.287900
     16 N16         63.0190    49.6210   -46.4050 nb         1 X88      -0.621000
     17 C17         62.8190    48.4970   -47.1490 ca         1 X88       0.302900
     18 C18         62.6440    47.2120   -46.5630 ca         1 X88       0.257300
     19 N19         62.6670    47.0260   -45.2100 nb         1 X88      -0.639000
     20 C20         62.8700    48.1500   -44.4660 ca         1 X88       0.292900
     21 H1          64.1290    44.3510   -45.9870 ha         1 X88       0.135000
     22 H2          66.3260    43.8800   -45.0050 ha         1 X88       0.152000
     23 H4          68.2350    45.7870   -48.3840 ha         1 X88       0.145000
     24 HN7         63.6890    46.0010   -49.1900 hn         1 X88       0.545000
     25 HN9         67.0270    47.4080   -51.2330 hn         1 X88       0.323500
     26 HN9A        67.9860    46.7930   -49.9060 hn         1 X88       0.323500
     27 H14         61.5830    46.1830   -48.1250 h1         1 X88       0.080200
     28 H14A        62.1140    45.1380   -46.8130 h1         1 X88       0.080200
     29 H17         62.7990    48.6250   -48.2310 h4         1 X88       0.040100
     30 H20         62.8940    48.0270   -43.3850 h4         1 X88       0.035100
     31 H15         63.2040    50.3110   -44.4370 h4         1 X88       0.035100
@<TRIPOS>BOND
     1     1     2 ar  
     2     1     6 ar  
     3     1    21 1   
     4     2     3 ar  
     5     2    22 1   
     6     3     4 ar  
     7     3    11 1   
     8     4     5 ar  
     9     4    23 1   
    10     5     6 ar  
    11     5     8 1   
    12     6     7 1   
    13     7    14 1   
    14     7    24 1   
    15     8     9 1   
    16     8    10 2   
    17     9    25 1   
    18     9    26 1   
    19    11    12 1   
    20    11    13 1   
    21    14    18 1   
    22    14    27 1   
    23    14    28 1   
    24    15    16 ar  
    25    15    20 ar  
    26    15    31 1   
    27    16    17 ar  
    28    17    18 ar  
    29    17    29 1   
    30    18    19 ar  
    31    19    20 ar  
    32    20    30 1   
@<TRIPOS>SUBSTRUCTURE
     1 X88         1 TEMP              0 ****  ****    0 ROOT
