@<TRIPOS>MOLECULE
X88
   31    32     1     0     0
SMALL
abcg2


@<TRIPOS>ATOM
      1 C1          65.3030    45.3280   -46.4260 ca         1 X88      -0.230000
      2 C2          66.5440    44.9710   -45.9670 ca         1 X88       0.034000
      3 C3          67.6470    45.0570   -46.8220 ca         1 X88      -0.262200
      4 C4          67.4890    45.4760   -48.1380 ca         1 X88       0.038000
      5 C5          66.2460    45.8310   -48.6290 ca         1 X88      -0.267600
      6 C6          65.1100    45.7900   -47.7530 ca         1 X88       0.430000
      7 N7          63.8950    46.1730   -48.1830 nu         1 X88      -0.953200
      8 C8          66.0940    46.2670   -50.0480 c          1 X88       0.630700
      9 N9          67.0220    45.8460   -50.9260 nt         1 X88      -0.589000
     10 O10         65.1550    46.9910   -50.4100 o          1 X88      -0.647100
     11 N11         68.9560    44.7150   -46.3400 no         1 X88       0.686200
     12 O12         69.9160    44.8050   -47.1090 o          1 X88      -0.411500
     13 O13         69.0760    44.3420   -45.1700 o          1 X88      -0.411500
     14 C14         62.6890    46.1470   -47.3900 c3         1 X88       0.177500
     15 C15         62.3370    49.1500   -44.4930 ca         1 X88       0.287900
     16 N16         63.3180    49.2940   -45.3840 nb         1 X88      -0.621000
     17 C17         63.4370    48.3400   -46.3090 ca         1 X88       0.302900
     18 C18         62.5840    47.2390   -46.3470 ca         1 X88       0.257300
     19 N19         61.6040    47.1020   -45.4510 nb         1 X88      -0.639000
     20 C20         61.4800    48.0550   -44.5300 ca         1 X88       0.292900
     21 H1          64.4620    45.2700   -45.7530 ha         1 X88       0.135000
     22 H2          66.6750    44.6370   -44.9490 ha         1 X88       0.152000
     23 H4          68.3650    45.5390   -48.7640 ha         1 X88       0.145000
     24 HN7         63.8730    46.5940   -49.1040 hn         1 X88       0.545000
     25 HN9         66.9310    46.1280   -51.8890 hn         1 X88       0.323500
     26 HN9A        67.7110    45.1490   -50.7020 hn         1 X88       0.323500
     27 H14         61.8470    46.2450   -48.0780 h1         1 X88       0.080200
     28 H14A        62.5730    45.1820   -46.8920 h1         1 X88       0.080200
     29 H17         64.2300    48.4520   -47.0370 h4         1 X88       0.040100
     30 H20         60.6840    47.9480   -43.8020 h4         1 X88       0.035100
     31 H15         62.2290    49.9150   -43.7340 h4         1 X88       0.035100
@<TRIPOS>BOND
     1     1     2 ar  
     2     1     6 ar  
     3     1    21 1   
     4     2     3 ar  
     5     2    22 1   
     6     3     4 ar  
     7     3    11 1   
     8     4     5 ar  
     9     4    23 1   
    10     5     6 ar  
    11     5     8 1   
    12     6     7 1   
    13     7    14 1   
    14     7    24 1   
    15     8     9 1   
    16     8    10 2   
    17     9    25 1   
    18     9    26 1   
    19    11    12 1   
    20    11    13 1   
    21    14    18 1   
    22    14    27 1   
    23    14    28 1   
    24    15    16 ar  
    25    15    20 ar  
    26    15    31 1   
    27    16    17 ar  
    28    17    18 ar  
    29    17    29 1   
    30    18    19 ar  
    31    19    20 ar  
    32    20    30 1   
@<TRIPOS>SUBSTRUCTURE
     1 X88         1 TEMP              0 ****  ****    0 ROOT
