@<TRIPOS>MOLECULE
X89
   39    41     1     0     0
SMALL
bcc


@<TRIPOS>ATOM
      1 O            0.0990     0.2400    -0.3920 os         1 X89      -0.407600
      2 C1          -1.3750     1.7250    -1.4780 c3         1 X89       0.048300
      3 N1          -0.3350     2.6860    -1.7480 na         1 X89      -0.186900
      4 C2           0.7510     2.4940    -2.5260 cc         1 X89       0.401400
      5 N3           1.5590     3.5230    -2.5010 nd         1 X89      -0.675000
      6 C4           0.9730     4.4210    -1.6530 cd         1 X89       0.300200
      7 C5          -0.2010     3.9190    -1.1720 cc         1 X89      -0.271600
      8 CL2A        -3.4770     2.0390     1.4200 cl         1 X89      -0.103400
      9 CL2B         2.2630    -1.2520     3.1430 cl         1 X89      -0.107400
     10 CL4A        -5.7440    -2.7720     0.8220 cl         1 X89      -0.090400
     11 CL4B         6.2790    -2.2090    -0.2750 cl         1 X89      -0.097400
     12 C1A         -2.2630     0.0110     0.0860 ca         1 X89      -0.126300
     13 C1B          2.0830    -0.7110     0.4990 ca         1 X89      -0.077300
     14 C2A         -3.3830     0.4220     0.8000 ca         1 X89       0.042400
     15 C2B          2.8830    -1.2080     1.5250 ca         1 X89       0.033400
     16 C3A         -4.4590    -0.4200     1.0360 ca         1 X89      -0.117000
     17 C3B          4.1700    -1.6710     1.3090 ca         1 X89      -0.115000
     18 C4A         -4.4120    -1.7090     0.5350 ca         1 X89       0.040400
     19 C4B          4.6730    -1.6380     0.0180 ca         1 X89       0.035400
     20 C5A         -3.3200    -2.1560    -0.1910 ca         1 X89      -0.121000
     21 C5B          3.9110    -1.1560    -1.0320 ca         1 X89      -0.119000
     22 C6A         -2.2610    -1.2900    -0.4080 ca         1 X89      -0.094000
     23 C6B          2.6270    -0.6980    -0.7810 ca         1 X89      -0.088000
     24 CBA         -1.1000     0.9350    -0.1990 c3         1 X89       0.181400
     25 CBB          0.6980    -0.2120     0.7930 c3         1 X89       0.183700
     26 H1          -2.3280     2.2480    -1.3940 h1         1 X89       0.075200
     27 H1A         -1.4540     1.0430    -2.3260 h1         1 X89       0.075200
     28 H2           0.8920     1.5890    -3.0980 h5         1 X89       0.053100
     29 H4           1.4180     5.3810    -1.4400 h4         1 X89       0.038100
     30 H5          -0.9390     4.3250    -0.4990 h4         1 X89       0.173000
     31 HC3         -5.3150    -0.0730     1.5990 ha         1 X89       0.166000
     32 HC3A         4.7650    -2.0470     2.1300 ha         1 X89       0.164000
     33 HC5         -3.2910    -3.1620    -0.5840 ha         1 X89       0.156000
     34 HC5A         4.3080    -1.1340    -2.0370 ha         1 X89       0.154000
     35 HC6         -1.4080    -1.6440    -0.9730 ha         1 X89       0.155000
     36 HC6A         2.0420    -0.3210    -1.6090 ha         1 X89       0.153000
     37 HCB         -0.9850     1.6430     0.6340 h1         1 X89       0.067700
     38 HCBA         0.7500     0.6000     1.5310 h1         1 X89       0.050200
     39 HCBB         0.1090    -1.0160     1.2550 h1         1 X89       0.050200
@<TRIPOS>BOND
     1     1    24 1   
     2     1    25 1   
     3     2     3 1   
     4     2    24 1   
     5     2    26 1   
     6     2    27 1   
     7     3     4 1   
     8     3     7 1   
     9     4     5 2   
    10     4    28 1   
    11     5     6 1   
    12     6     7 2   
    13     6    29 1   
    14     7    30 1   
    15     8    14 1   
    16     9    15 1   
    17    10    18 1   
    18    11    19 1   
    19    12    14 ar  
    20    12    22 ar  
    21    12    24 1   
    22    13    15 ar  
    23    13    23 ar  
    24    13    25 1   
    25    14    16 ar  
    26    15    17 ar  
    27    16    18 ar  
    28    16    31 1   
    29    17    19 ar  
    30    17    32 1   
    31    18    20 ar  
    32    19    21 ar  
    33    20    22 ar  
    34    20    33 1   
    35    21    23 ar  
    36    21    34 1   
    37    22    35 1   
    38    23    36 1   
    39    24    37 1   
    40    25    38 1   
    41    25    39 1   
@<TRIPOS>SUBSTRUCTURE
     1 X89         1 TEMP              0 ****  ****    0 ROOT
