@<TRIPOS>MOLECULE
X89
   39    41     1     0     0
SMALL
No Charge or Current Charge


@<TRIPOS>ATOM
      1 O            0.1920     0.3720    -0.2720 os         1 X89      -0.454000
      2 C1          -1.2060     2.0040    -1.3630 c3         1 X89       0.077600
      3 N1          -0.2010     3.0820    -1.3930 na         1 X89      -0.165500
      4 C2           1.1350     2.9420    -1.7100 cc         1 X89       0.401400
      5 N3           1.7560     4.1140    -1.6530 nd         1 X89      -0.675000
      6 C4           0.7940     5.0290    -1.2780 cd         1 X89       0.234900
      7 C5          -0.4200     4.4140    -1.1110 cc         1 X89      -0.239000
      8 Cl2A        -3.3580     1.4990     1.9790 cl         1 X89      -0.195000
      9 Cl2B         3.1050     1.5020     1.1630 cl         1 X89      -0.199000
     10 Cl4A        -5.5790    -3.0640    -0.0050 cl         1 X89      -0.182000
     11 Cl4B         6.0480    -2.8520    -0.3120 cl         1 X89      -0.190000
     12 C1A         -2.2070     0.0400    -0.0910 ca         1 X89      -0.126300
     13 C1B          1.9750    -0.9700     0.6010 ca         1 X89      -0.077300
     14 C2A         -3.2710     0.1590     0.8350 ca         1 X89       0.134000
     15 C2B          3.1560    -0.2000     0.6970 ca         1 X89       0.125000
     16 C3A         -4.3010    -0.7960     0.8580 ca         1 X89      -0.099000
     17 C3B          4.4040    -0.7800     0.4170 ca         1 X89      -0.097000
     18 C4A         -4.2850    -1.8730    -0.0390 ca         1 X89       0.132000
     19 C4B          4.4840    -2.1290     0.0380 ca         1 X89       0.127000
     20 C5A         -3.2420    -1.9990    -0.9670 ca         1 X89      -0.103000
     21 C5B          3.3160    -2.9010    -0.0640 ca         1 X89      -0.101000
     22 C6A         -2.2080    -1.0470    -0.9960 ca         1 X89      -0.076000
     23 C6B          2.0650    -2.3240     0.2150 ca         1 X89      -0.070000
     24 CBA         -1.0660     1.0640    -0.1450 c3         1 X89       0.204600
     25 CBB          0.6090    -0.3630     0.8910 c3         1 X89       0.206900
     26 H1          -2.2040     2.4580    -1.3450 h1         1 X89       0.075200
     27 H1A         -1.1250     1.4170    -2.2860 h1         1 X89       0.075200
     28 H2           1.5780     1.9880    -1.9720 h5         1 X89       0.053100
     29 H4           1.0270     6.0800    -1.1500 h4         1 X89       0.038100
     30 H5          -1.3840     4.8170    -0.8250 h4         1 X89       0.155000
     31 HC3         -5.1140    -0.6990     1.5720 ha         1 X89       0.148000
     32 HC3A         5.3090    -0.1850     0.4920 ha         1 X89       0.146000
     33 HC5         -3.2330    -2.8330    -1.6640 ha         1 X89       0.138000
     34 HC5A         3.3810    -3.9450    -0.3600 ha         1 X89       0.136000
     35 HC6         -1.4040    -1.1570    -1.7210 ha         1 X89       0.137000
     36 HC6A         1.1650    -2.9290     0.1290 ha         1 X89       0.135000
     37 HCB         -1.0550     1.6840     0.7590 h1         1 X89       0.067700
     38 HCBA         0.6710     0.2920     1.7700 h1         1 X89       0.050200
     39 HCBB        -0.1050    -1.1630     1.1260 h1         1 X89       0.050200
@<TRIPOS>BOND
     1     1    24 1   
     2     1    25 1   
     3     2     3 1   
     4     2    24 1   
     5     2    26 1   
     6     2    27 1   
     7     3     4 1   
     8     3     7 1   
     9     4     5 2   
    10     4    28 1   
    11     5     6 1   
    12     6     7 2   
    13     6    29 1   
    14     7    30 1   
    15     8    14 1   
    16     9    15 1   
    17    10    18 1   
    18    11    19 1   
    19    12    14 ar  
    20    12    22 ar  
    21    12    24 1   
    22    13    15 ar  
    23    13    23 ar  
    24    13    25 1   
    25    14    16 ar  
    26    15    17 ar  
    27    16    18 ar  
    28    16    31 1   
    29    17    19 ar  
    30    17    32 1   
    31    18    20 ar  
    32    19    21 ar  
    33    20    22 ar  
    34    20    33 1   
    35    21    23 ar  
    36    21    34 1   
    37    22    35 1   
    38    23    36 1   
    39    24    37 1   
    40    25    38 1   
    41    25    39 1   
@<TRIPOS>SUBSTRUCTURE
     1 X89         1 TEMP              0 ****  ****    0 ROOT
