@<TRIPOS>MOLECULE
X8D
   24    26     1     0     0
SMALL
No Charge or Current Charge


@<TRIPOS>ATOM
      1 C13          3.0350    -1.5690    -0.0770 ca         1 X8D      -0.129000
      2 C14          1.9800    -2.4900    -0.0880 ca         1 X8D      -0.075000
      3 C12          2.7670    -0.1920    -0.0400 ca         1 X8D      -0.073000
      4 C15          0.6530    -2.0340    -0.0620 ca         1 X8D      -0.127000
      5 C11          1.4350     0.2820    -0.0130 ca         1 X8D      -0.091000
      6 C10          0.3690    -0.6500    -0.0250 ca         1 X8D       0.032000
      7 C3          -0.1760     2.1620     0.0510 cc         1 X8D      -0.114000
      8 C2           1.1400     1.7350     0.0260 cd         1 X8D      -0.016300
      9 C4          -1.2620     1.2260     0.0400 cc         1 X8D      -0.039000
     10 C7          -2.1980    -0.8210    -0.0000 c          1 X8D       0.524800
     11 C1           2.2500     2.7630     0.0390 c3         1 X8D      -0.054800
     12 N5          -2.5640     1.4630     0.0610 nd         1 X8D      -0.196600
     13 N6          -3.0900     0.2080     0.0350 ns         1 X8D      -0.361400
     14 N9          -0.9770    -0.1370     0.0030 n          1 X8D      -0.026800
     15 O8          -2.4480    -2.0180    -0.0270 o          1 X8D      -0.555000
     16 H13          4.0640    -1.9220    -0.0970 ha         1 X8D       0.120000
     17 H14          2.1890    -3.5580    -0.1170 ha         1 X8D       0.121000
     18 H12          3.6070     0.4970    -0.0320 ha         1 X8D       0.117000
     19 H15         -0.1420    -2.7730    -0.0720 ha         1 X8D       0.155000
     20 H3          -0.4170     3.2200     0.0800 ha         1 X8D       0.143000
     21 H11C         2.8750     2.6780    -0.8580 hc         1 X8D       0.051033
     22 H12C         1.8620     3.7870     0.0690 hc         1 X8D       0.051033
     23 H13C         2.8950     2.6340     0.9170 hc         1 X8D       0.051033
     24 H6          -4.0920     0.0240     0.0420 hn         1 X8D       0.493000
@<TRIPOS>BOND
     1     1     2 ar  
     2     1     3 ar  
     3     1    16 1   
     4     2     4 ar  
     5     2    17 1   
     6     3     5 ar  
     7     3    18 1   
     8     4     6 ar  
     9     4    19 1   
    10     5     6 ar  
    11     5     8 1   
    12     6    14 1   
    13     7     8 2   
    14     7     9 1   
    15     7    20 1   
    16     8    11 1   
    17     9    12 2   
    18     9    14 1   
    19    10    13 1   
    20    10    14 1   
    21    10    15 2   
    22    11    21 1   
    23    11    22 1   
    24    11    23 1   
    25    12    13 1   
    26    13    24 1   
@<TRIPOS>SUBSTRUCTURE
     1 X8D         1 TEMP              0 ****  ****    0 ROOT
