@<TRIPOS>MOLECULE
X8D
   24    26     1     0     0
SMALL
abcg2


@<TRIPOS>ATOM
      1 C13          2.9970    -1.5260    -0.0760 ca         1 X8D      -0.129000
      2 C14          1.9500    -2.4400    -0.0860 ca         1 X8D      -0.075000
      3 C12          2.7220    -0.1740    -0.0390 ca         1 X8D      -0.073000
      4 C15          0.6360    -2.0070    -0.0600 ca         1 X8D      -0.127000
      5 C11          1.4070     0.3030    -0.0120 ca         1 X8D      -0.091000
      6 C10          0.3620    -0.6420    -0.0240 ca         1 X8D       0.032000
      7 C3          -0.1630     2.1510     0.0510 cc         1 X8D      -0.114000
      8 C2           1.1180     1.7310     0.0260 cd         1 X8D      -0.016300
      9 C4          -1.2240     1.2000     0.0390 cc         1 X8D      -0.039000
     10 C7          -2.1560    -0.8320    -0.0020 c          1 X8D       0.524800
     11 C1           2.2440     2.7140     0.0380 c3         1 X8D      -0.054800
     12 N5          -2.4990     1.4200     0.0570 nd         1 X8D      -0.196600
     13 N6          -3.0500     0.1830     0.0320 ns         1 X8D      -0.361400
     14 N9          -0.9400    -0.1480     0.0020 n          1 X8D      -0.026800
     15 O8          -2.3570    -2.0330    -0.0290 o          1 X8D      -0.555000
     16 H13          4.0230    -1.8690    -0.0970 ha         1 X8D       0.120000
     17 H14          2.1530    -3.5020    -0.1140 ha         1 X8D       0.121000
     18 H12          3.5430     0.5290    -0.0300 ha         1 X8D       0.117000
     19 H15         -0.1650    -2.7280    -0.0680 ha         1 X8D       0.155000
     20 H3          -0.4230     3.2000     0.0810 ha         1 X8D       0.143000
     21 H11C         2.8670     2.6170    -0.8530 hc         1 X8D       0.051033
     22 H12C         1.8670     3.7330     0.0750 hc         1 X8D       0.051033
     23 H13C         2.8950     2.5640     0.9010 hc         1 X8D       0.051033
     24 H6          -4.0510     0.0720     0.0420 hn         1 X8D       0.493000
@<TRIPOS>BOND
     1     1     2 ar  
     2     1     3 ar  
     3     1    16 1   
     4     2     4 ar  
     5     2    17 1   
     6     3     5 ar  
     7     3    18 1   
     8     4     6 ar  
     9     4    19 1   
    10     5     6 ar  
    11     5     8 1   
    12     6    14 1   
    13     7     8 2   
    14     7     9 1   
    15     7    20 1   
    16     8    11 1   
    17     9    12 2   
    18     9    14 1   
    19    10    13 1   
    20    10    14 1   
    21    10    15 2   
    22    11    21 1   
    23    11    22 1   
    24    11    23 1   
    25    12    13 1   
    26    13    24 1   
@<TRIPOS>SUBSTRUCTURE
     1 X8D         1 TEMP              0 ****  ****    0 ROOT
