@<TRIPOS>MOLECULE
X8E
   33    36     1     0     0
SMALL
bcc


@<TRIPOS>ATOM
      1 C13          1.1230    -1.9700     0.1910 ca         1 X8E      -0.134000
      2 C12         -0.1920    -2.3850     0.2040 ca         1 X8E      -0.092000
      3 C17          3.8410    -0.9230    -0.5390 ca         1 X8E      -0.233800
      4 C21          3.2150     1.0480     0.6340 ca         1 X8E      -0.233800
      5 C15          0.4030     0.3090    -0.0540 ca         1 X8E      -0.134000
      6 C18          5.1440    -0.4510    -0.5240 ca         1 X8E       0.399700
      7 C20          4.5460     1.4270     0.5960 ca         1 X8E       0.399700
      8 C14          1.4330    -0.6150     0.0630 cp         1 X8E      -0.005000
      9 C16          2.8360    -0.1610     0.0530 cp         1 X8E      -0.003000
     10 C11         -1.2480    -1.4770     0.0860 ca         1 X8E      -0.085000
     11 C10         -0.9220    -0.1130    -0.0440 ca         1 X8E       0.082700
     12 C3          -3.6210    -1.0000    -0.0300 cc         1 X8E      -0.128000
     13 C2          -2.6370    -1.9130     0.0950 cd         1 X8E      -0.018300
     14 C4          -3.2980     0.3800    -0.1670 cc         1 X8E       0.010700
     15 C7          -1.9660     2.1710    -0.3080 c          1 X8E       0.668300
     16 C1          -2.9540    -3.3670     0.2390 c3         1 X8E      -0.055800
     17 N19          5.5040     0.7010     0.0290 nb         1 X8E      -0.659000
     18 N5          -4.1040     1.3850    -0.2950 nd         1 X8E      -0.194600
     19 N6          -3.2840     2.4600    -0.3790 ns         1 X8E      -0.312900
     20 N9          -1.9800     0.7820    -0.1680 n          1 X8E      -0.128200
     21 O8          -1.0090     2.9230    -0.3540 o          1 X8E      -0.630500
     22 H13          1.9090    -2.7040     0.3040 ha         1 X8E       0.141000
     23 H12         -0.4020    -3.4400     0.3150 ha         1 X8E       0.138000
     24 H18          5.9310    -1.0340    -0.9880 h4         1 X8E       0.020600
     25 H21          2.4950     1.6830     1.1330 ha         1 X8E       0.146000
     26 H20          4.8510     2.3630     1.0510 h4         1 X8E       0.020600
     27 H15          0.6290     1.3570    -0.1790 ha         1 X8E       0.177000
     28 H3          -4.6670    -1.2770    -0.0290 ha         1 X8E       0.163000
     29 H11C        -2.5390    -3.7760     1.1620 hc         1 X8E       0.052033
     30 H12C        -4.0300    -3.5280     0.2540 hc         1 X8E       0.052033
     31 H13C        -2.5380    -3.9480    -0.5860 hc         1 X8E       0.052033
     32 H6          -3.6690     3.3850    -0.4870 hn         1 X8E       0.381500
     33 H17          3.6210    -1.8630    -1.0270 ha         1 X8E       0.146000
@<TRIPOS>BOND
     1     1     2 ar  
     2     1     8 ar  
     3     1    22 1   
     4     2    10 ar  
     5     2    23 1   
     6     3     6 ar  
     7     3     9 ar  
     8     3    33 1   
     9     4     7 ar  
    10     4     9 ar  
    11     4    25 1   
    12     5     8 ar  
    13     5    11 ar  
    14     5    27 1   
    15     6    17 ar  
    16     6    24 1   
    17     7    17 ar  
    18     7    26 1   
    19     8     9 1   
    20    10    11 ar  
    21    10    13 1   
    22    11    20 1   
    23    12    13 2   
    24    12    14 1   
    25    12    28 1   
    26    13    16 1   
    27    14    18 2   
    28    14    20 1   
    29    15    19 1   
    30    15    20 1   
    31    15    21 2   
    32    16    29 1   
    33    16    30 1   
    34    16    31 1   
    35    18    19 1   
    36    19    32 1   
@<TRIPOS>SUBSTRUCTURE
     1 X8E         1 TEMP              0 ****  ****    0 ROOT
