@<TRIPOS>MOLECULE
X8E
   33    36     1     0     0
SMALL
No Charge or Current Charge


@<TRIPOS>ATOM
      1 C13          1.1450    -1.9870     0.1880 ca         1 X8E      -0.116000
      2 C12         -0.1900    -2.4190     0.1980 ca         1 X8E      -0.074000
      3 C17          3.9300    -0.9420    -0.5130 ca         1 X8E      -0.150500
      4 C21          3.2890     1.0840     0.6060 ca         1 X8E      -0.150500
      5 C15          0.4010     0.3050    -0.0540 ca         1 X8E      -0.116000
      6 C18          5.2550    -0.4750    -0.5040 ca         1 X8E       0.334400
      7 C20          4.6370     1.4750     0.5760 ca         1 X8E       0.334400
      8 C14          1.4690    -0.6170     0.0620 cp         1 X8E      -0.005000
      9 C16          2.8950    -0.1580     0.0510 cp         1 X8E      -0.003000
     10 C11         -1.2490    -1.4930     0.0820 ca         1 X8E      -0.085000
     11 C10         -0.9480    -0.1160    -0.0440 ca         1 X8E       0.032000
     12 C3          -3.6730    -1.0010    -0.0290 cc         1 X8E      -0.110000
     13 C2          -2.6630    -1.9390     0.0900 cd         1 X8E      -0.018300
     14 C4          -3.3780     0.3950    -0.1580 cc         1 X8E      -0.040000
     15 C7          -2.0400     2.2000    -0.2950 c          1 X8E       0.525800
     16 C1          -3.0240    -3.4020     0.2250 c3         1 X8E      -0.055800
     17 N19          5.6130     0.7140     0.0300 nb         1 X8E      -0.659000
     18 N5          -4.2160     1.4130    -0.2780 nd         1 X8E      -0.194600
     19 N6          -3.3730     2.4780    -0.3580 ns         1 X8E      -0.359400
     20 N9          -2.0480     0.8060    -0.1630 n          1 X8E      -0.026800
     21 O8          -1.1140     2.9970    -0.3450 o          1 X8E      -0.555000
     22 H13          1.9350    -2.7250     0.2930 ha         1 X8E       0.123000
     23 H12         -0.3860    -3.4830     0.3000 ha         1 X8E       0.120000
     24 H18          6.0550    -1.0710    -0.9410 h4         1 X8E       0.020600
     25 H21          2.5620     1.7410     1.0730 ha         1 X8E       0.128000
     26 H20          4.9470     2.4270     1.0050 h4         1 X8E       0.020600
     27 H15          0.6440     1.3540    -0.1680 ha         1 X8E       0.159000
     28 H3          -4.7160    -1.3040    -0.0260 ha         1 X8E       0.145000
     29 H11C        -2.6460    -3.8160     1.1670 hc         1 X8E       0.052033
     30 H12C        -4.1090    -3.5600     0.2130 hc         1 X8E       0.052033
     31 H13C        -2.6020    -3.9890    -0.5990 hc         1 X8E       0.052033
     32 H6          -3.6960     3.4380    -0.4590 hn         1 X8E       0.495000
     33 H17          3.7140    -1.9020    -0.9720 ha         1 X8E       0.128000
@<TRIPOS>BOND
     1     1     2 ar  
     2     1     8 ar  
     3     1    22 1   
     4     2    10 ar  
     5     2    23 1   
     6     3     6 ar  
     7     3     9 ar  
     8     3    33 1   
     9     4     7 ar  
    10     4     9 ar  
    11     4    25 1   
    12     5     8 ar  
    13     5    11 ar  
    14     5    27 1   
    15     6    17 ar  
    16     6    24 1   
    17     7    17 ar  
    18     7    26 1   
    19     8     9 1   
    20    10    11 ar  
    21    10    13 1   
    22    11    20 1   
    23    12    13 2   
    24    12    14 1   
    25    12    28 1   
    26    13    16 1   
    27    14    18 2   
    28    14    20 1   
    29    15    19 1   
    30    15    20 1   
    31    15    21 2   
    32    16    29 1   
    33    16    30 1   
    34    16    31 1   
    35    18    19 1   
    36    19    32 1   
@<TRIPOS>SUBSTRUCTURE
     1 X8E         1 TEMP              0 ****  ****    0 ROOT
