@<TRIPOS>MOLECULE
X8G
   51    55     1     0     0
SMALL
No Charge or Current Charge


@<TRIPOS>ATOM
      1 C4          -1.4220     1.6330     0.3280 ca         1 X8G       0.284500
      2 C5          -0.7490     2.8560     0.5360 ca         1 X8G      -0.260000
      3 C6           0.6520     2.8620     0.5610 ca         1 X8G       0.154900
      4 N1           1.3580     1.7320     0.3860 nb         1 X8G      -0.240000
      5 N3          -0.6910     0.5060     0.1540 nb         1 X8G      -0.295000
      6 CAL         -6.5600    -1.0740    -0.8380 cy         1 X8G       0.129300
      7 CBA         -7.0850    -2.5270    -0.5380 cy         1 X8G       0.136300
      8 OAC         -6.0960    -3.5580    -0.5560 oh         1 X8G      -0.634000
      9 CAM         -7.4060    -1.9140     0.8760 cy         1 X8G       0.129300
     10 NBB         -6.2160    -1.0460     0.6180 nq         1 X8G      -0.699600
     11 CAU         -4.8090     0.9570     0.8180 cc         1 X8G      -0.211300
     12 CAJ         -3.4910     0.6510     1.0030 cd         1 X8G      -0.085000
     13 CAS         -4.8360     2.1350     0.0280 cc         1 X8G       0.280300
     14 CAA         -6.1080     2.8090    -0.4080 c3         1 X8G      -0.123400
     15 NAP         -3.6440     2.5990    -0.2960 nd         1 X8G      -0.515800
     16 NBD         -2.8260     1.6630     0.3120 na         1 X8G       0.096300
     17 C2           0.6450     0.6120     0.1810 ca         1 X8G       0.411900
     18 NAR          1.3170    -0.5920     0.0250 nu         1 X8G      -0.924900
     19 CAT          2.6630    -0.9620    -0.1140 ca         1 X8G       0.277000
     20 CAI          3.6470    -0.0790    -0.6250 ca         1 X8G      -0.058000
     21 CAY          4.9630    -0.5540    -0.7350 ca         1 X8G      -0.193900
     22 CAV          6.1850     0.0500    -1.2040 cc         1 X8G       0.397900
     23 Cl1          6.2660     1.6870    -1.7790 cl         1 X8G      -0.073300
     24 NAQ          7.2360    -0.7790    -1.1460 nd         1 X8G      -0.502100
     25 NBC          6.6630    -1.9400    -0.6270 na         1 X8G       0.083600
     26 CAB          7.4350    -3.1670    -0.3750 c3         1 X8G       0.083900
     27 CAZ          5.3090    -1.8180    -0.3800 ca         1 X8G      -0.059200
     28 CAH          4.3690    -2.7310     0.1150 ca         1 X8G      -0.098000
     29 CAG          3.0340    -2.2860     0.2410 ca         1 X8G      -0.117000
     30 H1          -1.3030     3.7800     0.6800 ha         1 X8G       0.163000
     31 H2           1.2170     3.7790     0.7230 h4         1 X8G       0.028100
     32 H3          -5.7160    -1.0170    -1.5350 h1         1 X8G       0.053700
     33 H4          -7.3510    -0.3760    -1.1430 h1         1 X8G       0.053700
     34 H5          -7.9620    -2.8300    -1.1200 h1         1 X8G       0.043700
     35 H6          -5.3540    -3.2000    -0.0190 ho         1 X8G       0.442000
     36 H7          -8.3680    -1.3860     0.9170 h1         1 X8G       0.053700
     37 H8          -7.3230    -2.6140     1.7160 h1         1 X8G       0.053700
     38 H10         -6.9170     0.8370     1.2240 h1         1 X8G       0.037700
     39 H11         -5.8790     0.0040     2.3950 h1         1 X8G       0.037700
     40 H12         -3.0020    -0.1580     1.5360 h4         1 X8G       0.181000
     41 H13         -6.6750     3.1660     0.4590 hc         1 X8G       0.049700
     42 H14         -5.9020     3.6710    -1.0530 hc         1 X8G       0.049700
     43 H15         -6.7430     2.1150    -0.9710 hc         1 X8G       0.049700
     44 H16          0.6800    -1.3860     0.0940 hn         1 X8G       0.510000
     45 H17          3.3980     0.9280    -0.9430 ha         1 X8G       0.164000
     46 H18          7.3680    -3.4280     0.6880 h1         1 X8G       0.055700
     47 H19          7.0270    -3.9860    -0.9780 h1         1 X8G       0.055700
     48 H20          8.4870    -3.0090    -0.6430 h1         1 X8G       0.055700
     49 H21          4.6520    -3.7450     0.3920 ha         1 X8G       0.123000
     50 H22          2.2830    -2.9720     0.6240 ha         1 X8G       0.113000
     51 CAK         -6.0160     0.2180     1.3260 c3         1 X8G       0.248100
@<TRIPOS>BOND
     1     1     2 ar  
     2     1     5 ar  
     3     1    16 1   
     4     2     3 ar  
     5     2    30 1   
     6     3     4 ar  
     7     3    31 1   
     8     4    17 ar  
     9     5    17 ar  
    10     6     7 1   
    11     6    10 1   
    12     6    32 1   
    13     6    33 1   
    14     7     8 1   
    15     7     9 1   
    16     7    34 1   
    17     8    35 1   
    18     9    10 1   
    19     9    36 1   
    20     9    37 1   
    21    10    51 1   
    22    11    12 2   
    23    11    13 1   
    24    11    51 1   
    25    12    16 1   
    26    12    40 1   
    27    13    14 1   
    28    13    15 2   
    29    14    41 1   
    30    14    42 1   
    31    14    43 1   
    32    15    16 1   
    33    17    18 1   
    34    18    19 1   
    35    18    44 1   
    36    19    20 ar  
    37    19    29 ar  
    38    20    21 ar  
    39    20    45 1   
    40    21    22 1   
    41    21    27 ar  
    42    22    23 1   
    43    22    24 2   
    44    24    25 1   
    45    25    26 1   
    46    25    27 1   
    47    26    46 1   
    48    26    47 1   
    49    26    48 1   
    50    27    28 ar  
    51    28    29 ar  
    52    28    49 1   
    53    29    50 1   
    54    38    51 1   
    55    39    51 1   
@<TRIPOS>SUBSTRUCTURE
     1 X8G         1 TEMP              0 ****  ****    0 ROOT
