@<TRIPOS>MOLECULE
X8G
   51    55     1     0     0
SMALL
abcg2


@<TRIPOS>ATOM
      1 C4          -1.3770     1.5840     0.0600 ca         1 X8G       0.284500
      2 C5          -0.8580     2.7670    -0.4670 ca         1 X8G      -0.260000
      3 C6           0.4940     2.7360    -0.7300 ca         1 X8G       0.154900
      4 N1           1.2680     1.6790    -0.5090 nb         1 X8G      -0.240000
      5 N3          -0.6380     0.5240     0.2940 nb         1 X8G      -0.295000
      6 CAL         -6.4940    -0.8880    -0.8530 cy         1 X8G       0.129300
      7 CBA         -7.4200    -2.1090    -0.8310 cy         1 X8G       0.136300
      8 OAC         -6.8410    -3.1930    -1.5080 oh         1 X8G      -0.634000
      9 CAM         -7.2000    -2.0970     0.6930 cy         1 X8G       0.129300
     10 NBB         -6.0270    -1.2410     0.4910 nq         1 X8G      -0.699600
     11 CAU         -4.6810     0.7070     0.9820 cc         1 X8G      -0.211300
     12 CAJ         -3.3680     0.3630     0.8390 cd         1 X8G      -0.085000
     13 CAS         -4.7440     2.0630     0.5560 cc         1 X8G       0.280300
     14 CAA         -5.9460     2.9400     0.5030 c3         1 X8G      -0.123400
     15 NAP         -3.5610     2.5000     0.1920 nd         1 X8G      -0.515800
     16 NBD         -2.7270     1.4640     0.3660 na         1 X8G       0.096300
     17 C2           0.6630     0.6120    -0.0010 ca         1 X8G       0.411900
     18 NAR          1.3690    -0.5160     0.2680 nu         1 X8G      -0.924900
     19 CAT          2.7170    -0.8220     0.0870 ca         1 X8G       0.277000
     20 CAI          3.6520     0.0070    -0.5010 ca         1 X8G      -0.058000
     21 CAY          4.9630    -0.4730    -0.6110 ca         1 X8G      -0.193900
     22 CAV          6.1760     0.0350    -1.1270 cc         1 X8G       0.397900
     23 CL1          6.4030     1.5660    -1.8520 cl         1 X8G      -0.073300
     24 NAQ          7.1590    -0.8160    -1.0060 nd         1 X8G      -0.502100
     25 NBC          6.6480    -1.9030    -0.4260 na         1 X8G       0.083600
     26 CAB          7.5000    -3.0050    -0.0570 c3         1 X8G       0.083900
     27 CAZ          5.3280    -1.7450    -0.1530 ca         1 X8G      -0.059200
     28 CAH          4.3840    -2.5860     0.4480 ca         1 X8G      -0.098000
     29 CAG          3.1040    -2.1100     0.5550 ca         1 X8G      -0.117000
     30 H1          -1.4610     3.6380    -0.6610 ha         1 X8G       0.163000
     31 H2           0.9850     3.6100    -1.1430 h4         1 X8G       0.028100
     32 H3          -5.7260    -0.8510    -1.6300 h1         1 X8G       0.053700
     33 H4          -7.0720     0.0460    -0.8830 h1         1 X8G       0.053700
     34 H5          -8.4490    -1.9300    -1.1540 h1         1 X8G       0.043700
     35 H6          -7.3720    -3.9750    -1.3280 ho         1 X8G       0.442000
     36 H7          -8.0230    -1.5880     1.2110 h1         1 X8G       0.053700
     37 H8          -7.0060    -3.0520     1.1890 h1         1 X8G       0.053700
     38 H10         -6.7130     0.4520     1.5570 h1         1 X8G       0.037700
     39 H11         -5.5890    -0.5990     2.4060 h1         1 X8G       0.037700
     40 H12         -2.8470    -0.5590     1.0320 h4         1 X8G       0.181000
     41 H13         -6.3780     3.0780     1.4950 hc         1 X8G       0.049700
     42 H14         -5.6930     3.9200     0.1030 hc         1 X8G       0.049700
     43 H15         -6.7230     2.5060    -0.1270 hc         1 X8G       0.049700
     44 H16          0.8080    -1.2510     0.6700 hn         1 X8G       0.510000
     45 H17          3.3890     0.9870    -0.8640 ha         1 X8G       0.164000
     46 H18          7.9450    -2.8520     0.9260 h1         1 X8G       0.055700
     47 H19          6.9150    -3.9210    -0.0400 h1         1 X8G       0.055700
     48 H20          8.2880    -3.1100    -0.7970 h1         1 X8G       0.055700
     49 H21          4.6390    -3.5690     0.8200 ha         1 X8G       0.123000
     50 H22          2.3530    -2.7390     1.0190 ha         1 X8G       0.113000
     51 CAK         -5.8080    -0.1660     1.4270 c3         1 X8G       0.248100
@<TRIPOS>BOND
     1     1     2 ar  
     2     1     5 ar  
     3     1    16 1   
     4     2     3 ar  
     5     2    30 1   
     6     3     4 ar  
     7     3    31 1   
     8     4    17 ar  
     9     5    17 ar  
    10     6     7 1   
    11     6    10 1   
    12     6    32 1   
    13     6    33 1   
    14     7     8 1   
    15     7     9 1   
    16     7    34 1   
    17     8    35 1   
    18     9    10 1   
    19     9    36 1   
    20     9    37 1   
    21    10    51 1   
    22    11    12 2   
    23    11    13 1   
    24    11    51 1   
    25    12    16 1   
    26    12    40 1   
    27    13    14 1   
    28    13    15 2   
    29    14    41 1   
    30    14    42 1   
    31    14    43 1   
    32    15    16 1   
    33    17    18 1   
    34    18    19 1   
    35    18    44 1   
    36    19    20 ar  
    37    19    29 ar  
    38    20    21 ar  
    39    20    45 1   
    40    21    22 1   
    41    21    27 ar  
    42    22    23 1   
    43    22    24 2   
    44    24    25 1   
    45    25    26 1   
    46    25    27 1   
    47    26    46 1   
    48    26    47 1   
    49    26    48 1   
    50    27    28 ar  
    51    28    29 ar  
    52    28    49 1   
    53    29    50 1   
    54    38    51 1   
    55    39    51 1   
@<TRIPOS>SUBSTRUCTURE
     1 X8G         1 TEMP              0 ****  ****    0 ROOT
