@<TRIPOS>MOLECULE
X8I
   35    38     1     0     0
SMALL
abcg2


@<TRIPOS>ATOM
      1 C18          4.7230    -1.4340     0.7020 ca         1 X8I      -0.074000
      2 C17          3.3440    -1.2800     0.6880 ca         1 X8I      -0.140000
      3 C14          0.7400     1.3000     0.2500 ca         1 X8I      -0.065000
      4 C15         -0.6290     1.4800     0.2490 ca         1 X8I      -0.128000
      5 C19          5.5550    -0.4750     0.1470 ca         1 X8I      -0.141000
      6 C12          0.4600    -1.0460    -0.0790 ca         1 X8I      -0.061000
      7 C21          3.6120     0.8180    -0.4550 ca         1 X8I      -0.197000
      8 C13          1.3120     0.0360     0.0880 cp         1 X8I      -0.054000
      9 C16          2.7770    -0.1480     0.1060 cp         1 X8I       0.008000
     10 C11         -0.9300    -0.9070    -0.0840 ca         1 X8I      -0.092000
     11 C10         -1.4700     0.3820     0.0850 ca         1 X8I       0.035000
     12 C20          4.9940     0.6590    -0.4350 ca         1 X8I       0.141100
     13 C3          -3.1420    -1.8880    -0.2540 cc         1 X8I      -0.114000
     14 C2          -1.8050    -2.0600    -0.2610 cd         1 X8I      -0.016300
     15 C4          -3.6920    -0.5860    -0.0790 cc         1 X8I      -0.039000
     16 C7          -3.6590     1.6300     0.2260 c          1 X8I       0.525800
     17 C1          -1.2110    -3.4190    -0.4460 c3         1 X8I      -0.055800
     18 N5          -4.9370    -0.2360    -0.0470 nd         1 X8I      -0.195600
     19 N6          -4.9020     1.1050     0.1370 ns         1 X8I      -0.360400
     20 N9          -2.8550     0.4980     0.0800 n          1 X8I      -0.026800
     21 O8          -3.3210     2.7880     0.3900 o          1 X8I      -0.554000
     22 O22          5.8320     1.5690    -0.9690 oh         1 X8I      -0.533100
     23 H18          5.1590    -2.3110     1.1620 ha         1 X8I       0.116000
     24 H17          2.7170    -2.0310     1.1510 ha         1 X8I       0.116000
     25 H19          6.6300    -0.6000     0.1620 ha         1 X8I       0.130000
     26 H15         -1.0340     2.4690     0.3870 ha         1 X8I       0.156000
     27 H12          0.8840    -2.0300    -0.2280 ha         1 X8I       0.121000
     28 H21          3.1840     1.6940    -0.9320 ha         1 X8I       0.115000
     29 H22          5.3360     2.3050    -1.3450 ho         1 X8I       0.466000
     30 H3          -3.8280    -2.7140    -0.3770 ha         1 X8I       0.144000
     31 H11C        -0.5980    -3.7070     0.4100 hc         1 X8I       0.052033
     32 H12C        -1.9910    -4.1680    -0.5670 hc         1 X8I       0.052033
     33 H13C        -0.5690    -3.4550    -1.3290 hc         1 X8I       0.052033
     34 H6          -5.7590     1.6310     0.2040 hn         1 X8I       0.494000
     35 H14          1.3730     2.1650     0.4010 ha         1 X8I       0.122000
@<TRIPOS>BOND
     1     1     2 ar  
     2     1     5 ar  
     3     1    23 1   
     4     2     9 ar  
     5     2    24 1   
     6     3     4 ar  
     7     3     8 ar  
     8     3    35 1   
     9     4    11 ar  
    10     4    26 1   
    11     5    12 ar  
    12     5    25 1   
    13     6     8 ar  
    14     6    10 ar  
    15     6    27 1   
    16     7     9 ar  
    17     7    12 ar  
    18     7    28 1   
    19     8     9 1   
    20    10    11 ar  
    21    10    14 1   
    22    11    20 1   
    23    12    22 1   
    24    13    14 2   
    25    13    15 1   
    26    13    30 1   
    27    14    17 1   
    28    15    18 2   
    29    15    20 1   
    30    16    19 1   
    31    16    20 1   
    32    16    21 2   
    33    17    31 1   
    34    17    32 1   
    35    17    33 1   
    36    18    19 1   
    37    19    34 1   
    38    22    29 1   
@<TRIPOS>SUBSTRUCTURE
     1 X8I         1 TEMP              0 ****  ****    0 ROOT
