@<TRIPOS>MOLECULE
X8I
   35    38     1     0     0
SMALL
No Charge or Current Charge


@<TRIPOS>ATOM
      1 C18          4.8210    -1.4520     0.7040 ca         1 X8I      -0.074000
      2 C17          3.4260    -1.2830     0.6940 ca         1 X8I      -0.140000
      3 C14          0.7590     1.3210     0.2720 ca         1 X8I      -0.065000
      4 C15         -0.6340     1.4880     0.2650 ca         1 X8I      -0.128000
      5 C19          5.6480    -0.4710     0.1350 ca         1 X8I      -0.141000
      6 C12          0.4730    -1.0600    -0.0650 ca         1 X8I      -0.061000
      7 C21          3.6870     0.8430    -0.4510 ca         1 X8I      -0.197000
      8 C13          1.3420     0.0450     0.1080 cp         1 X8I      -0.054000
      9 C16          2.8290    -0.1330     0.1170 cp         1 X8I       0.008000
     10 C11         -0.9320    -0.9090    -0.0750 ca         1 X8I      -0.092000
     11 C10         -1.4900     0.3790     0.0920 ca         1 X8I       0.035000
     12 C20          5.0810     0.6740    -0.4420 ca         1 X8I       0.141100
     13 C3          -3.2000    -1.8900    -0.2650 cc         1 X8I      -0.114000
     14 C2          -1.8280    -2.0780    -0.2600 cd         1 X8I      -0.016300
     15 C4          -3.7720    -0.5880    -0.0950 cc         1 X8I      -0.039000
     16 C7          -3.7280     1.6410     0.2190 c          1 X8I       0.525800
     17 C1          -1.2740    -3.4740    -0.4410 c3         1 X8I      -0.055800
     18 N5          -5.0480    -0.2370    -0.0750 nd         1 X8I      -0.195600
     19 N6          -4.9780     1.1090     0.1150 ns         1 X8I      -0.360400
     20 N9          -2.9250     0.5030     0.0770 n          1 X8I      -0.026800
     21 O8          -3.4340     2.8150     0.3910 o          1 X8I      -0.554000
     22 O22          5.8890     1.6210    -0.9960 oh         1 X8I      -0.533100
     23 H18          5.2590    -2.3400     1.1550 ha         1 X8I       0.116000
     24 H17          2.8020    -2.0470     1.1520 ha         1 X8I       0.116000
     25 H19          6.7280    -0.5990     0.1410 ha         1 X8I       0.130000
     26 H15         -1.0290     2.4900     0.3980 ha         1 X8I       0.156000
     27 H12          0.9140    -2.0420    -0.2070 ha         1 X8I       0.121000
     28 H21          3.2590     1.7280    -0.9130 ha         1 X8I       0.115000
     29 H22          5.3250     2.3420    -1.3490 ho         1 X8I       0.466000
     30 H3          -3.8750    -2.7300    -0.3980 ha         1 X8I       0.144000
     31 H11C        -0.6710    -3.7740     0.4240 hc         1 X8I       0.052033
     32 H12C        -2.0690    -4.2200    -0.5570 hc         1 X8I       0.052033
     33 H13C        -0.6410    -3.5330    -1.3350 hc         1 X8I       0.052033
     34 H6          -5.8010     1.7050     0.1800 hn         1 X8I       0.494000
     35 H14          1.3920     2.1930     0.4200 ha         1 X8I       0.122000
@<TRIPOS>BOND
     1     1     2 ar  
     2     1     5 ar  
     3     1    23 1   
     4     2     9 ar  
     5     2    24 1   
     6     3     4 ar  
     7     3     8 ar  
     8     3    35 1   
     9     4    11 ar  
    10     4    26 1   
    11     5    12 ar  
    12     5    25 1   
    13     6     8 ar  
    14     6    10 ar  
    15     6    27 1   
    16     7     9 ar  
    17     7    12 ar  
    18     7    28 1   
    19     8     9 1   
    20    10    11 ar  
    21    10    14 1   
    22    11    20 1   
    23    12    22 1   
    24    13    14 2   
    25    13    15 1   
    26    13    30 1   
    27    14    17 1   
    28    15    18 2   
    29    15    20 1   
    30    16    19 1   
    31    16    20 1   
    32    16    21 2   
    33    17    31 1   
    34    17    32 1   
    35    17    33 1   
    36    18    19 1   
    37    19    34 1   
    38    22    29 1   
@<TRIPOS>SUBSTRUCTURE
     1 X8I         1 TEMP              0 ****  ****    0 ROOT
