@<TRIPOS>MOLECULE
X8J
   66    70     1     0     0
SMALL
No Charge or Current Charge


@<TRIPOS>ATOM
      1 N1          57.6190    -8.9070    98.6030 nb         1 X8J      -0.280000
      2 C7          56.7790    -6.6580   102.2890 ca         1 X8J       0.161100
      3 C8          57.3110    -6.9380   104.6950 c3         1 X8J       0.148900
      4 N2          58.1030    -7.9550   100.6970 nu         1 X8J      -0.927900
      5 C9          55.7540    -5.7270   102.5680 ca         1 X8J      -0.241000
      6 O1          57.5290    -7.2370   103.3050 os         1 X8J      -0.339100
      7 C1          60.3080   -12.6480    96.9550 c3         1 X8J       0.102000
      8 C5          58.4470    -8.8000    99.6500 ca         1 X8J       0.408900
      9 C6          57.0680    -7.0250   100.9470 ca         1 X8J       0.220000
     10 N3          53.9990    -4.2140   101.8370 nh         1 X8J      -0.786400
     11 C4          57.9680    -9.7560    97.6220 ca         1 X8J       0.376900
     12 C3          59.1200   -10.5650    97.7290 ca         1 X8J      -0.131400
     13 C2          59.6940   -13.4590    98.1190 c3         1 X8J      -0.113100
     14 N4          51.7380    -2.3500   102.4060 n3         1 X8J      -0.712600
     15 N           59.6070   -11.3730    96.6230 n          1 X8J      -0.292000
     16 C           59.7840   -10.8670    95.2970 c          1 X8J       0.593600
     17 O           60.5740   -11.4200    94.5380 o          1 X8J      -0.554000
     18 C10         55.0160    -5.1430   101.5290 ca         1 X8J       0.335000
     19 C11         52.8770    -4.6040   102.7500 c6         1 X8J       0.197800
     20 C12         52.1810    -3.3680   103.4080 c6         1 X8J       0.155800
     21 C13         51.0420    -1.2030   103.0280 c3         1 X8J       0.151100
     22 C14         52.9000    -1.9320   101.5630 c6         1 X8J       0.155800
     23 C15         53.6110    -3.1390   100.8680 c6         1 X8J       0.197800
     24 C16         55.3150    -5.4870   100.1990 ca         1 X8J      -0.205000
     25 C17         56.3310    -6.4140    99.9090 ca         1 X8J      -0.036000
     26 C18         59.9560   -10.3030    98.8370 ca         1 X8J       0.150900
     27 C19         55.9630   -10.6190    96.4390 c3         1 X8J       0.198100
     28 C20         57.7510    -9.2780    95.3310 ca         1 X8J       0.308000
     29 C21         58.9760    -9.6950    94.7690 ca         1 X8J      -0.157600
     30 C22         59.4400    -9.0260    93.6090 ca         1 X8J      -0.045000
     31 C23         58.7160    -7.9620    93.0460 ca         1 X8J      -0.134000
     32 C24         57.5090    -7.5500    93.6250 ca         1 X8J      -0.074000
     33 C25         57.0310    -8.2110    94.7660 ca         1 X8J      -0.156000
     34 N5          59.6070    -9.4480    99.8150 nb         1 X8J      -0.249000
     35 N6          57.2410    -9.8780    96.4620 na         1 X8J      -0.781100
     36 H1          58.0100    -7.5070   105.3200 h1         1 X8J       0.041367
     37 H2          57.4690    -5.8700   104.8940 h1         1 X8J       0.041367
     38 H3          56.2900    -7.2060   104.9970 h1         1 X8J       0.041367
     39 H4          58.6760    -8.1250   101.5250 hn         1 X8J       0.522000
     40 H5          55.5300    -5.4330   103.5870 ha         1 X8J       0.121000
     41 H6          60.2960   -13.3010    96.0720 h1         1 X8J       0.057700
     42 H7          61.3590   -12.4250    97.1840 h1         1 X8J       0.057700
     43 H8          60.1980   -14.4280    98.2070 hc         1 X8J       0.043367
     44 H9          59.7970   -12.9440    99.0800 hc         1 X8J       0.043367
     45 H10         58.6290   -13.6450    97.9350 hc         1 X8J       0.043367
     46 H12         52.1230    -5.1700   102.1820 h1         1 X8J       0.045200
     47 H13         53.2360    -5.2640   103.5520 h1         1 X8J       0.045200
     48 H14         52.8850    -2.9130   104.1200 h1         1 X8J       0.040450
     49 H15         51.3210    -3.7240   103.9940 h1         1 X8J       0.040450
     50 H16         50.1690    -1.5430   103.6000 h1         1 X8J       0.032367
     51 H17         51.7110    -0.6610   103.7110 h1         1 X8J       0.032367
     52 H18         50.6910    -0.5000   102.2600 h1         1 X8J       0.032367
     53 H19         53.6410    -1.4040   102.1810 h1         1 X8J       0.040450
     54 H20         52.5720    -1.2260   100.7860 h1         1 X8J       0.040450
     55 H21         52.9340    -3.5530   100.1060 h1         1 X8J       0.045200
     56 H22         54.5010    -2.7590   100.3450 h1         1 X8J       0.045200
     57 H23         54.7590    -5.0460    99.3780 ha         1 X8J       0.118000
     58 H24         56.5460    -6.6370    98.8700 ha         1 X8J       0.125000
     59 H25         60.9220   -10.7910    98.9510 h4         1 X8J       0.028100
     60 H26         56.0410   -11.5210    97.0600 h1         1 X8J       0.046700
     61 H27         55.1570    -9.9840    96.8300 h1         1 X8J       0.046700
     62 H28         55.7150   -10.9180    95.4110 h1         1 X8J       0.046700
     63 H29         60.3740    -9.3270    93.1370 ha         1 X8J       0.131000
     64 H30         59.0930    -7.4580    92.1590 ha         1 X8J       0.120000
     65 H31         56.9460    -6.7250    93.1920 ha         1 X8J       0.115000
     66 H32         56.0970    -7.8900    95.2190 ha         1 X8J       0.121000
@<TRIPOS>BOND
     1     1     8 ar  
     2     1    11 ar  
     3     2     5 ar  
     4     2     6 1   
     5     2     9 ar  
     6     3     6 1   
     7     3    36 1   
     8     3    37 1   
     9     3    38 1   
    10     4     8 1   
    11     4     9 1   
    12     4    39 1   
    13     5    18 ar  
    14     5    40 1   
    15     7    13 1   
    16     7    15 1   
    17     7    41 1   
    18     7    42 1   
    19     8    34 ar  
    20     9    25 ar  
    21    10    18 1   
    22    10    19 1   
    23    10    23 1   
    24    11    12 ar  
    25    11    35 1   
    26    12    15 1   
    27    12    26 ar  
    28    13    43 1   
    29    13    44 1   
    30    13    45 1   
    31    14    20 1   
    32    14    21 1   
    33    14    22 1   
    34    15    16 1   
    35    16    17 2   
    36    16    29 1   
    37    18    24 ar  
    38    19    20 1   
    39    19    46 1   
    40    19    47 1   
    41    20    48 1   
    42    20    49 1   
    43    21    50 1   
    44    21    51 1   
    45    21    52 1   
    46    22    23 1   
    47    22    53 1   
    48    22    54 1   
    49    23    55 1   
    50    23    56 1   
    51    24    25 ar  
    52    24    57 1   
    53    25    58 1   
    54    26    34 ar  
    55    26    59 1   
    56    27    35 1   
    57    27    60 1   
    58    27    61 1   
    59    27    62 1   
    60    28    29 ar  
    61    28    33 ar  
    62    28    35 1   
    63    29    30 ar  
    64    30    31 ar  
    65    30    63 1   
    66    31    32 ar  
    67    31    64 1   
    68    32    33 ar  
    69    32    65 1   
    70    33    66 1   
@<TRIPOS>SUBSTRUCTURE
     1 X8J         1 TEMP              0 ****  ****    0 ROOT
