@<TRIPOS>MOLECULE
X8J
   66    70     1     0     0
SMALL
bcc


@<TRIPOS>ATOM
      1 N1          58.1010    -8.4030    98.8600 nb         1 X8J      -0.806000
      2 C7          57.1360    -6.7270   102.1600 ca         1 X8J       0.161100
      3 C8          57.0070    -7.8500   104.2480 c3         1 X8J       0.125700
      4 N2          58.9870    -7.3110   100.6870 nu         1 X8J      -0.734300
      5 C9          56.0010    -5.9740   102.4250 ca         1 X8J      -0.259000
      6 O1          57.6580    -7.6230   103.0160 os         1 X8J      -0.315900
      7 C1          59.9130   -12.3990    97.5150 c3         1 X8J       0.102000
      8 C5          59.1380    -8.1800    99.6620 ca         1 X8J       0.934900
      9 C6          57.8250    -6.5620   100.9480 ca         1 X8J       0.081600
     10 N3          54.3640    -4.3070   101.7910 nh         1 X8J      -0.648000
     11 C4          58.2490    -9.2800    97.8880 ca         1 X8J       0.705200
     12 C3          59.4330   -10.0060    97.7240 ca         1 X8J      -0.262000
     13 C2          58.7110   -13.0800    98.1480 c3         1 X8J      -0.113100
     14 N4          51.7840    -3.0870   101.9500 n3         1 X8J      -0.712600
     15 N           59.5470   -11.1290    96.8800 n          1 X8J      -0.359000
     16 C           59.1470   -11.1430    95.5860 c          1 X8J       0.736100
     17 O           59.2600   -12.1350    94.8840 o          1 X8J      -0.629500
     18 C10         55.4950    -5.0600   101.4870 ca         1 X8J       0.196600
     19 C11         53.2310    -5.0000   102.3900 c6         1 X8J       0.197800
     20 C12         52.2300    -4.0180   102.9640 c6         1 X8J       0.155800
     21 C13         50.7680    -2.1910   102.4530 c3         1 X8J       0.151100
     22 C14         52.9240    -2.3670   101.4270 c6         1 X8J       0.155800
     23 C15         53.9410    -3.3150   100.8230 c6         1 X8J       0.197800
     24 C16         56.1810    -4.9150   100.2770 ca         1 X8J      -0.223000
     25 C17         57.3340    -5.6460   100.0360 ca         1 X8J      -0.054000
     26 C18         60.4670    -9.6370    98.5710 ca         1 X8J       0.479200
     27 C19         55.8820    -9.0410    97.4530 c3         1 X8J       0.198100
     28 C20         57.5370    -9.1820    95.6470 ca         1 X8J       0.169600
     29 C21         58.5500    -9.9050    95.0070 ca         1 X8J      -0.157600
     30 C22         58.8960    -9.5890    93.6940 ca         1 X8J      -0.063000
     31 C23         58.2600    -8.5690    93.0110 ca         1 X8J      -0.152000
     32 C24         57.2290    -7.8800    93.6350 ca         1 X8J      -0.092000
     33 C25         56.8710    -8.1810    94.9380 ca         1 X8J      -0.174000
     34 N5          60.3480    -8.7320    99.5260 nb         1 X8J      -0.775000
     35 N6          57.1990    -9.4480    96.9930 na         1 X8J      -0.642700
     36 H1          57.5800    -8.6170   104.7630 h1         1 X8J       0.041367
     37 H2          56.9850    -6.9520   104.8710 h1         1 X8J       0.041367
     38 H3          55.9830    -8.2080   104.1100 h1         1 X8J       0.041367
     39 H4          59.7750    -7.2250   101.3100 hn         1 X8J       0.466800
     40 H5          55.5060    -6.0770   103.3800 ha         1 X8J       0.139000
     41 H6          60.3750   -13.0400    96.7680 h1         1 X8J       0.057700
     42 H7          60.6730   -12.2020    98.2680 h1         1 X8J       0.057700
     43 H8          59.0210   -14.0000    98.6440 hc         1 X8J       0.043367
     44 H9          58.2440   -12.4380    98.8960 hc         1 X8J       0.043367
     45 H10         57.9620   -13.3360    97.4000 hc         1 X8J       0.043367
     46 H12         52.7310    -5.6350   101.6440 h1         1 X8J       0.045200
     47 H13         53.5640    -5.6500   103.1970 h1         1 X8J       0.045200
     48 H14         52.6840    -3.4940   103.8240 h1         1 X8J       0.040450
     49 H15         51.3730    -4.5790   103.3430 h1         1 X8J       0.040450
     50 H16         49.9060    -2.7610   102.7990 h1         1 X8J       0.032367
     51 H17         51.1170    -1.5660   103.2900 h1         1 X8J       0.032367
     52 H18         50.4310    -1.5240   101.6570 h1         1 X8J       0.032367
     53 H19         53.4150    -1.7600   102.2080 h1         1 X8J       0.040450
     54 H20         52.5920    -1.6780   100.6460 h1         1 X8J       0.040450
     55 H21         53.5170    -3.7830    99.9210 h1         1 X8J       0.045200
     56 H22         54.8020    -2.7230   100.5100 h1         1 X8J       0.045200
     57 H23         55.8340    -4.2420    99.5070 ha         1 X8J       0.136000
     58 H24         57.8560    -5.5100    99.0970 ha         1 X8J       0.143000
     59 H25         61.4370   -10.1170    98.4820 h4         1 X8J       0.028100
     60 H26         55.6830    -9.5080    98.4140 h1         1 X8J       0.046700
     61 H27         55.7640    -7.9620    97.5700 h1         1 X8J       0.046700
     62 H28         55.1400    -9.4020    96.7420 h1         1 X8J       0.046700
     63 H29         59.6700   -10.1640    93.2020 ha         1 X8J       0.149000
     64 H30         58.5480    -8.3290    91.9970 ha         1 X8J       0.138000
     65 H31         56.7040    -7.0930    93.1100 ha         1 X8J       0.133000
     66 H32         56.0750    -7.6170    95.4040 ha         1 X8J       0.139000
@<TRIPOS>BOND
     1     1     8 ar  
     2     1    11 ar  
     3     2     5 ar  
     4     2     6 1   
     5     2     9 ar  
     6     3     6 1   
     7     3    36 1   
     8     3    37 1   
     9     3    38 1   
    10     4     8 1   
    11     4     9 1   
    12     4    39 1   
    13     5    18 ar  
    14     5    40 1   
    15     7    13 1   
    16     7    15 1   
    17     7    41 1   
    18     7    42 1   
    19     8    34 ar  
    20     9    25 ar  
    21    10    18 1   
    22    10    19 1   
    23    10    23 1   
    24    11    12 ar  
    25    11    35 1   
    26    12    15 1   
    27    12    26 ar  
    28    13    43 1   
    29    13    44 1   
    30    13    45 1   
    31    14    20 1   
    32    14    21 1   
    33    14    22 1   
    34    15    16 1   
    35    16    17 2   
    36    16    29 1   
    37    18    24 ar  
    38    19    20 1   
    39    19    46 1   
    40    19    47 1   
    41    20    48 1   
    42    20    49 1   
    43    21    50 1   
    44    21    51 1   
    45    21    52 1   
    46    22    23 1   
    47    22    53 1   
    48    22    54 1   
    49    23    55 1   
    50    23    56 1   
    51    24    25 ar  
    52    24    57 1   
    53    25    58 1   
    54    26    34 ar  
    55    26    59 1   
    56    27    35 1   
    57    27    60 1   
    58    27    61 1   
    59    27    62 1   
    60    28    29 ar  
    61    28    33 ar  
    62    28    35 1   
    63    29    30 ar  
    64    30    31 ar  
    65    30    63 1   
    66    31    32 ar  
    67    31    64 1   
    68    32    33 ar  
    69    32    65 1   
    70    33    66 1   
@<TRIPOS>SUBSTRUCTURE
     1 X8J         1 TEMP              0 ****  ****    0 ROOT
