@<TRIPOS>MOLECULE
X8K
   51    55     1     0     0
SMALL
abcg2


@<TRIPOS>ATOM
      1 CAD         -8.1620    72.9460   -10.7640 c6         1 X8K       0.067000
      2 CAE         -8.7180    72.0370   -11.8420 c6         1 X8K       0.143100
      3 OAF         -9.6480    71.0970   -11.3460 os         1 X8K      -0.451000
      4 CAG         -9.3430    70.6050   -10.0560 c6         1 X8K       0.143100
      5 CAH         -7.8750    70.7370    -9.6990 c6         1 X8K       0.067000
      6 NAC         -7.4880    72.1420    -9.7510 n          1 X8K      -0.411800
      7 CAB         -6.7540    72.7740    -8.8150 c          1 X8K       0.613700
      8 OAA         -6.6900    73.9950    -8.7510 o          1 X8K      -0.588100
      9 CAI         -5.9710    71.9360    -7.8570 ca         1 X8K      -0.138600
     10 CAN         -5.1070    70.9380    -8.2960 ca         1 X8K      -0.072000
     11 CAM         -4.3150    70.2470    -7.3940 ca         1 X8K      -0.108000
     12 CAJ         -6.0270    72.2320    -6.4980 ca         1 X8K      -0.072000
     13 CAK         -5.2570    71.5210    -5.5940 ca         1 X8K      -0.108000
     14 CAL         -4.3780    70.5270    -6.0290 ca         1 X8K      -0.015000
     15 CAO         -3.5260    69.7960    -5.0740 cc         1 X8K      -0.068000
     16 CAW         -2.9730    70.4530    -4.0160 cd         1 X8K      -0.096000
     17 NAV         -2.1820    69.7830    -3.1310 na         1 X8K       0.145100
     18 CAP         -3.2450    68.4090    -5.2440 cc         1 X8K      -0.094000
     19 CAQ         -2.4210    67.7520    -4.3830 cd         1 X8K      -0.075000
     20 CAR         -1.8530    68.4490    -3.3000 cd         1 X8K      -0.071000
     21 NAS         -1.0130    68.0420    -2.3650 nc         1 X8K      -0.284600
     22 CAT         -0.7900    69.1220    -1.5910 cc         1 X8K      -0.002400
     23 CAU         -1.4960    70.2250    -2.0180 cd         1 X8K      -0.151300
     24 CAX         -1.5830    71.5590    -1.4440 ca         1 X8K       0.012200
     25 CAY         -0.4230    72.1690    -0.9570 ca         1 X8K      -0.110000
     26 CAZ         -0.4730    73.4180    -0.3710 ca         1 X8K      -0.067500
     27 CBA         -1.6930    74.0870    -0.2720 ca         1 X8K      -0.016000
     28 CBD         -1.7480    75.3860     0.3150 cg         1 X8K       0.321000
     29 NBE         -1.7960    76.4330     0.7940 n1         1 X8K      -0.445000
     30 CBB         -2.8600    73.4890    -0.7470 ca         1 X8K      -0.067500
     31 CBC         -2.8020    72.2340    -1.3210 ca         1 X8K      -0.110000
     32 H1          -7.4560    73.6410   -11.2200 h1         1 X8K       0.061450
     33 H2          -8.9630    73.5440   -10.3190 h1         1 X8K       0.061450
     34 H3          -7.8890    71.5350   -12.3570 h1         1 X8K       0.052700
     35 H4          -9.2330    72.6470   -12.5860 h1         1 X8K       0.052700
     36 H5          -9.9420    71.1260    -9.2990 h1         1 X8K       0.052700
     37 H6          -9.6210    69.5490   -10.0200 h1         1 X8K       0.052700
     38 H7          -7.7330    70.3460    -8.6930 h1         1 X8K       0.061450
     39 H8          -7.2600    70.1330   -10.3730 h1         1 X8K       0.061450
     40 H9          -5.0280    70.7070    -9.3510 ha         1 X8K       0.127000
     41 H10         -3.6260    69.4990    -7.7650 ha         1 X8K       0.119000
     42 H11         -6.6910    73.0070    -6.1380 ha         1 X8K       0.127000
     43 H12         -5.3510    71.7370    -4.5370 ha         1 X8K       0.119000
     44 H13         -3.0990    71.5130    -3.8520 h4         1 X8K       0.154000
     45 H14         -3.6980    67.8720    -6.0660 ha         1 X8K       0.127000
     46 H15         -2.1900    66.7030    -4.5060 ha         1 X8K       0.147000
     47 H16         -0.1490    69.0780    -0.7220 h4         1 X8K       0.230000
     48 H17          0.5290    71.6650    -1.0540 ha         1 X8K       0.123500
     49 H18          0.4330    73.8810    -0.0030 ha         1 X8K       0.128500
     50 H19         -3.8090    74.0000    -0.6570 ha         1 X8K       0.128500
     51 H20         -3.7240    71.7700    -1.6470 ha         1 X8K       0.123500
@<TRIPOS>BOND
     1     1     2 1   
     2     1     6 1   
     3     1    32 1   
     4     1    33 1   
     5     2     3 1   
     6     2    34 1   
     7     2    35 1   
     8     3     4 1   
     9     4     5 1   
    10     4    36 1   
    11     4    37 1   
    12     5     6 1   
    13     5    38 1   
    14     5    39 1   
    15     6     7 1   
    16     7     8 2   
    17     7     9 1   
    18     9    10 ar  
    19     9    12 ar  
    20    10    11 ar  
    21    10    40 1   
    22    11    14 ar  
    23    11    41 1   
    24    12    13 ar  
    25    12    42 1   
    26    13    14 ar  
    27    13    43 1   
    28    14    15 1   
    29    15    16 2   
    30    15    18 1   
    31    16    17 1   
    32    16    44 1   
    33    17    20 1   
    34    17    23 1   
    35    18    19 2   
    36    18    45 1   
    37    19    20 1   
    38    19    46 1   
    39    20    21 2   
    40    21    22 1   
    41    22    23 2   
    42    22    47 1   
    43    23    24 1   
    44    24    25 ar  
    45    24    31 ar  
    46    25    26 ar  
    47    25    48 1   
    48    26    27 ar  
    49    26    49 1   
    50    27    28 1   
    51    27    30 ar  
    52    28    29 3   
    53    30    31 ar  
    54    30    50 1   
    55    31    51 1   
@<TRIPOS>SUBSTRUCTURE
     1 X8K         1 TEMP              0 ****  ****    0 ROOT
