@<TRIPOS>MOLECULE
X8K
   51    55     1     0     0
SMALL
No Charge or Current Charge


@<TRIPOS>ATOM
      1 CAD         -8.1770    72.9040   -10.9250 c6         1 X8K       0.067000
      2 CAE         -8.7530    71.9880   -12.0380 c6         1 X8K       0.143100
      3 OAF         -9.7100    71.0230   -11.5260 os         1 X8K      -0.451000
      4 CAG         -9.5330    70.6230   -10.1410 c6         1 X8K       0.143100
      5 CAH         -8.0550    70.7270    -9.6750 c6         1 X8K       0.067000
      6 NAC         -7.5170    72.1170    -9.8370 n          1 X8K      -0.411800
      7 CAB         -6.8200    72.7790    -8.7990 c          1 X8K       0.613700
      8 OAA         -6.8430    74.0020    -8.7230 o          1 X8K      -0.588100
      9 CAI         -5.9720    71.9660    -7.8410 ca         1 X8K      -0.138600
     10 CAN         -5.3210    70.7780    -8.2350 ca         1 X8K      -0.072000
     11 CAM         -4.5290    70.0570    -7.3250 ca         1 X8K      -0.108000
     12 CAJ         -5.7730    72.4310    -6.5260 ca         1 X8K      -0.072000
     13 CAK         -4.9800    71.7100    -5.6180 ca         1 X8K      -0.108000
     14 CAL         -4.3400    70.5050    -5.9980 ca         1 X8K      -0.015000
     15 CAO         -3.5060    69.7290    -5.0510 cc         1 X8K      -0.068000
     16 CAW         -2.9300    70.4640    -4.0060 cd         1 X8K      -0.096000
     17 NAV         -2.2260    69.7050    -3.0600 na         1 X8K       0.145100
     18 CAP         -3.1620    68.3330    -5.2610 cc         1 X8K      -0.094000
     19 CAQ         -2.2440    67.6950    -4.4570 cd         1 X8K      -0.075000
     20 CAR         -1.7390    68.4620    -3.3720 cd         1 X8K      -0.071000
     21 NAS         -0.7630    68.1350    -2.5510 nc         1 X8K      -0.284600
     22 CAT         -0.5860    69.2390    -1.7460 cc         1 X8K      -0.002400
     23 CAU         -1.4970    70.2470    -2.0130 cd         1 X8K      -0.151300
     24 CAX         -1.5840    71.5760    -1.3670 ca         1 X8K       0.012200
     25 CAY         -0.4840    72.0700    -0.6350 ca         1 X8K      -0.110000
     26 CAZ         -0.5420    73.3240    -0.0010 ca         1 X8K      -0.067500
     27 CBA         -1.7120    74.1000    -0.0730 ca         1 X8K      -0.016000
     28 CBD         -1.7750    75.3810     0.5770 cg         1 X8K       0.321000
     29 NBE         -1.8240    76.4170     1.1140 n1         1 X8K      -0.445000
     30 CBB         -2.8260    73.6050    -0.7740 ca         1 X8K      -0.067500
     31 CBC         -2.7640    72.3520    -1.4090 ca         1 X8K      -0.110000
     32 H1          -7.4440    73.5910   -11.3720 h1         1 X8K       0.061450
     33 H2          -8.9860    73.5140   -10.4980 h1         1 X8K       0.061450
     34 H3          -7.9260    71.4400   -12.5120 h1         1 X8K       0.052700
     35 H4          -9.2380    72.5940   -12.8160 h1         1 X8K       0.052700
     36 H5         -10.1520    71.2760    -9.5080 h1         1 X8K       0.052700
     37 H6          -9.8990    69.5950   -10.0160 h1         1 X8K       0.052700
     38 H7          -8.0040    70.4210    -8.6210 h1         1 X8K       0.061450
     39 H8          -7.4430    70.0250   -10.2590 h1         1 X8K       0.061450
     40 H9          -5.3990    70.4180    -9.2580 ha         1 X8K       0.127000
     41 H10         -4.0330    69.1610    -7.6860 ha         1 X8K       0.119000
     42 H11         -6.2540    73.3500    -6.1960 ha         1 X8K       0.127000
     43 H12         -4.9020    72.0920    -4.6050 ha         1 X8K       0.119000
     44 H13         -2.9930    71.5300    -3.8650 h4         1 X8K       0.154000
     45 H14         -3.5950    67.7890    -6.0920 ha         1 X8K       0.127000
     46 H15         -1.9040    66.6840    -4.6600 ha         1 X8K       0.147000
     47 H16          0.1950    69.2270    -0.9910 h4         1 X8K       0.230000
     48 H17          0.4360    71.4960    -0.5690 ha         1 X8K       0.123500
     49 H18          0.3250    73.6900     0.5460 ha         1 X8K       0.128500
     50 H19         -3.7470    74.1830    -0.8180 ha         1 X8K       0.128500
     51 H20         -3.6600    71.9740    -1.8920 ha         1 X8K       0.123500
@<TRIPOS>BOND
     1     1     2 1   
     2     1     6 1   
     3     1    32 1   
     4     1    33 1   
     5     2     3 1   
     6     2    34 1   
     7     2    35 1   
     8     3     4 1   
     9     4     5 1   
    10     4    36 1   
    11     4    37 1   
    12     5     6 1   
    13     5    38 1   
    14     5    39 1   
    15     6     7 1   
    16     7     8 2   
    17     7     9 1   
    18     9    10 ar  
    19     9    12 ar  
    20    10    11 ar  
    21    10    40 1   
    22    11    14 ar  
    23    11    41 1   
    24    12    13 ar  
    25    12    42 1   
    26    13    14 ar  
    27    13    43 1   
    28    14    15 1   
    29    15    16 2   
    30    15    18 1   
    31    16    17 1   
    32    16    44 1   
    33    17    20 1   
    34    17    23 1   
    35    18    19 2   
    36    18    45 1   
    37    19    20 1   
    38    19    46 1   
    39    20    21 2   
    40    21    22 1   
    41    22    23 2   
    42    22    47 1   
    43    23    24 1   
    44    24    25 ar  
    45    24    31 ar  
    46    25    26 ar  
    47    25    48 1   
    48    26    27 ar  
    49    26    49 1   
    50    27    28 1   
    51    27    30 ar  
    52    28    29 3   
    53    30    31 ar  
    54    30    50 1   
    55    31    51 1   
@<TRIPOS>SUBSTRUCTURE
     1 X8K         1 TEMP              0 ****  ****    0 ROOT
