@<TRIPOS>MOLECULE
X8L
   22    22     1     0     0
SMALL
abcg2


@<TRIPOS>ATOM
      1 C1           8.8600     8.5840    26.3170 c          1 X8L       0.625100
      2 C2           9.8380    10.0010    27.8450 c5         1 X8L       0.142300
      3 C3           9.3280    11.0460    28.8150 c3         1 X8L       0.177300
      4 C4          10.3620    12.1330    29.0770 c3         1 X8L       0.127600
      5 C5          10.2490    10.4970    26.4460 c5         1 X8L       0.149300
      6 C6          10.0990     9.1940    25.6670 c5         1 X8L       0.067300
      7 O1           8.0730     7.8100    25.8370 o          1 X8L      -0.482000
      8 O2           8.7650     9.0370    27.5780 os         1 X8L      -0.406100
      9 O3           8.9780    10.3500    30.0120 oh         1 X8L      -0.632000
     10 O4          11.5960    11.5370    29.4680 oh         1 X8L      -0.656000
     11 O5           9.3350    11.4390    25.9090 oh         1 X8L      -0.630000
     12 O6          10.0080     9.3670    24.2810 oh         1 X8L      -0.615000
     13 H1          10.6620     9.4500    28.2970 h1         1 X8L       0.094700
     14 H2           8.4440    11.5240    28.3830 h1         1 X8L       0.060700
     15 H4          10.4950    12.7460    28.1790 h1         1 X8L       0.025200
     16 H5           9.9730    12.7850    29.8670 h1         1 X8L       0.025200
     17 H7          11.2690    10.8790    26.4410 h1         1 X8L       0.070700
     18 H9          10.9400     8.5430    25.9440 h1         1 X8L       0.058700
     19 H3           8.4920    10.9590    30.5830 ho         1 X8L       0.444000
     20 H6          12.2330    12.2420    29.6380 ho         1 X8L       0.446000
     21 H8           9.6380    12.3320    26.1120 ho         1 X8L       0.444000
     22 H10          9.9220     8.4970    23.8690 ho         1 X8L       0.463000
@<TRIPOS>BOND
     1     1     6 1   
     2     1     7 2   
     3     1     8 1   
     4     2     3 1   
     5     2     5 1   
     6     2     8 1   
     7     2    13 1   
     8     3     4 1   
     9     3     9 1   
    10     3    14 1   
    11     4    10 1   
    12     4    15 1   
    13     4    16 1   
    14     5     6 1   
    15     5    11 1   
    16     5    17 1   
    17     6    12 1   
    18     6    18 1   
    19     9    19 1   
    20    10    20 1   
    21    11    21 1   
    22    12    22 1   
@<TRIPOS>SUBSTRUCTURE
     1 X8L         1 TEMP              0 ****  ****    0 ROOT
