@<TRIPOS>MOLECULE
X8L
   22    22     1     0     0
SMALL
No Charge or Current Charge


@<TRIPOS>ATOM
      1 C1           8.9160     8.5860    26.2360 c          1 X8L       0.625100
      2 C2           9.6970    10.0320    27.8510 c5         1 X8L       0.142300
      3 C3           9.1850    11.1040    28.8630 c3         1 X8L       0.177300
      4 C4          10.2440    12.1850    29.2190 c3         1 X8L       0.127600
      5 C5          10.2640    10.5790    26.4970 c5         1 X8L       0.149300
      6 C6          10.2030     9.2640    25.6790 c5         1 X8L       0.067300
      7 O1           8.1510     7.8400    25.6380 o          1 X8L      -0.482000
      8 O2           8.6200     9.1420    27.4500 os         1 X8L      -0.406100
      9 O3           8.7830    10.4710    30.0920 oh         1 X8L      -0.632000
     10 O4          11.3460    11.5910    29.9290 oh         1 X8L      -0.656000
     11 O5           9.4310    11.5860    25.9060 oh         1 X8L      -0.630000
     12 O6          10.1660     9.5050    24.2480 oh         1 X8L      -0.615000
     13 H1          10.4710     9.4320    28.3510 h1         1 X8L       0.094700
     14 H2           8.3250    11.6130    28.4060 h1         1 X8L       0.060700
     15 H4          10.5970    12.6740    28.3010 h1         1 X8L       0.025200
     16 H5           9.7690    12.9590    29.8360 h1         1 X8L       0.025200
     17 H7          11.2970    10.9400    26.6040 h1         1 X8L       0.070700
     18 H9          11.0490     8.6130    25.9410 h1         1 X8L       0.058700
     19 H3           9.5940    10.4700    30.6490 ho         1 X8L       0.444000
     20 H6          11.9860    12.3120    30.1270 ho         1 X8L       0.446000
     21 H8           9.4770    11.4120    24.9370 ho         1 X8L       0.444000
     22 H10          9.9880     8.6420    23.8060 ho         1 X8L       0.463000
@<TRIPOS>BOND
     1     1     6 1   
     2     1     7 2   
     3     1     8 1   
     4     2     3 1   
     5     2     5 1   
     6     2     8 1   
     7     2    13 1   
     8     3     4 1   
     9     3     9 1   
    10     3    14 1   
    11     4    10 1   
    12     4    15 1   
    13     4    16 1   
    14     5     6 1   
    15     5    11 1   
    16     5    17 1   
    17     6    12 1   
    18     6    18 1   
    19     9    19 1   
    20    10    20 1   
    21    11    21 1   
    22    12    22 1   
@<TRIPOS>SUBSTRUCTURE
     1 X8L         1 TEMP              0 ****  ****    0 ROOT
