@<TRIPOS>MOLECULE
X8M
   54    56     1     0     0
SMALL
bcc


@<TRIPOS>ATOM
      1 CAA         -5.7270     0.9730    -0.5520 c3         1 X8M      -0.123600
      2 CAS         -4.7480     0.6870     0.5740 c3         1 X8M       0.156500
      3 CAB         -5.4800     0.2120     1.8210 c3         1 X8M      -0.123600
      4 NAX         -3.6330    -0.2920     0.1570 n4         1 X8M      -0.631800
      5 CAC         -4.2090    -1.6590     0.1040 c3         1 X8M       0.105100
      6 CAU         -2.9610     0.1410    -1.1400 c5         1 X8M       0.155500
      7 CAN         -1.9780    -0.9250    -1.6120 c6         1 X8M      -0.114400
      8 CAL         -2.2720     1.4410    -0.7270 c5         1 X8M      -0.092900
      9 CAM         -1.8930     1.2280     0.7530 c5         1 X8M      -0.092900
     10 CAV         -2.4470    -0.1570     1.1030 c5         1 X8M       0.155500
     11 CAO         -1.4380    -1.2700     0.8440 c6         1 X8M      -0.114400
     12 CAT         -0.9090    -1.3070    -0.5920 c6         1 X8M       0.155100
     13 OAP          0.1850    -0.3890    -0.7730 os         1 X8M      -0.445900
     14 CAQ          1.4000    -0.7480    -0.3720 c          1 X8M       0.636100
     15 OAD          1.6410    -1.7940     0.1710 o          1 X8M      -0.496000
     16 CAW          2.4310     0.3090    -0.7260 c3         1 X8M      -0.065400
     17 CAK          1.9770     1.7130    -0.3140 c3         1 X8M       0.157400
     18 OAE          2.9890     2.6090    -0.6950 oh         1 X8M      -0.575800
     19 CAR          3.7830    -0.0410    -0.1590 ca         1 X8M      -0.081300
     20 CAI          4.8430    -0.3310    -1.0080 ca         1 X8M      -0.103500
     21 CAG          6.0990    -0.6410    -0.5000 ca         1 X8M      -0.122500
     22 CAF          6.3080    -0.6610     0.8710 ca         1 X8M      -0.108000
     23 CAH          5.2530    -0.3690     1.7290 ca         1 X8M      -0.122500
     24 CAJ          4.0010    -0.0630     1.2170 ca         1 X8M      -0.103500
     25 HAA1        -6.5180     1.6000    -0.1440 hc         1 X8M       0.070367
     26 HAA2        -5.2830     1.5280    -1.3760 hc         1 X8M       0.070367
     27 HAA3        -6.2020     0.0740    -0.9450 hc         1 X8M       0.070367
     28 HAS         -4.2470     1.6170     0.8280 hx         1 X8M       0.093700
     29 HAB1        -6.1860    -0.5920     1.6160 hc         1 X8M       0.070367
     30 HAB2        -4.8150    -0.1020     2.6240 hc         1 X8M       0.070367
     31 HAB3        -6.0510     1.0580     2.2010 hc         1 X8M       0.070367
     32 HAC1        -5.0840    -1.6520    -0.5400 hx         1 X8M       0.091367
     33 HAC2        -3.5060    -2.3770    -0.2940 hx         1 X8M       0.091367
     34 HAC3        -4.4870    -1.9780     1.1040 hx         1 X8M       0.091367
     35 HAU         -3.7210     0.2710    -1.9060 hx         1 X8M       0.102700
     36 HAV         -2.8070    -0.2300     2.1270 hx         1 X8M       0.102700
     37 HAN1        -2.5110    -1.8220    -1.9270 hc         1 X8M       0.090450
     38 HAN2        -1.5070    -0.5460    -2.5200 hc         1 X8M       0.090450
     39 HAL1        -1.4130     1.6400    -1.3640 hc         1 X8M       0.085700
     40 HAL2        -2.9460     2.2890    -0.8420 hc         1 X8M       0.085700
     41 HAT         -0.5530    -2.3140    -0.8150 h1         1 X8M       0.095700
     42 HAM1        -0.8210     1.2640     0.9280 hc         1 X8M       0.085700
     43 HAM2        -2.3280     1.9990     1.3870 hc         1 X8M       0.085700
     44 HAO1        -0.6240    -1.1390     1.5570 hc         1 X8M       0.090450
     45 HAO2        -1.8690    -2.2410     1.0870 hc         1 X8M       0.090450
     46 HAW          2.4990     0.2980    -1.8210 hc         1 X8M       0.094700
     47 HAK1         1.0290     1.9530    -0.8070 h1         1 X8M       0.015200
     48 HAK2         1.7970     1.7400     0.7700 h1         1 X8M       0.015200
     49 HAE          2.7120     3.4940    -0.4380 ho         1 X8M       0.413000
     50 HAI          4.6900    -0.3160    -2.0810 ha         1 X8M       0.123500
     51 HAJ          3.1920     0.1600     1.9020 ha         1 X8M       0.123500
     52 HAG          6.9130    -0.8650    -1.1770 ha         1 X8M       0.137500
     53 HAF          7.2840    -0.9020     1.2710 ha         1 X8M       0.140000
     54 HAH          5.4060    -0.3830     2.8000 ha         1 X8M       0.137500
@<TRIPOS>BOND
     1     1     2 1   
     2     1    25 1   
     3     1    26 1   
     4     1    27 1   
     5     2     3 1   
     6     2     4 1   
     7     2    28 1   
     8     3    29 1   
     9     3    30 1   
    10     3    31 1   
    11     4     5 1   
    12     4     6 1   
    13     4    10 1   
    14     5    32 1   
    15     5    33 1   
    16     5    34 1   
    17     6     7 1   
    18     6     8 1   
    19     6    35 1   
    20     7    12 1   
    21     7    37 1   
    22     7    38 1   
    23     8     9 1   
    24     8    39 1   
    25     8    40 1   
    26     9    10 1   
    27     9    42 1   
    28     9    43 1   
    29    10    11 1   
    30    10    36 1   
    31    11    12 1   
    32    11    44 1   
    33    11    45 1   
    34    12    13 1   
    35    12    41 1   
    36    13    14 1   
    37    14    15 2   
    38    14    16 1   
    39    16    17 1   
    40    16    19 1   
    41    16    46 1   
    42    17    18 1   
    43    17    47 1   
    44    17    48 1   
    45    18    49 1   
    46    19    20 ar  
    47    19    24 ar  
    48    20    21 ar  
    49    20    50 1   
    50    21    22 ar  
    51    21    52 1   
    52    22    23 ar  
    53    22    53 1   
    54    23    24 ar  
    55    23    54 1   
    56    24    51 1   
@<TRIPOS>SUBSTRUCTURE
     1 X8M         1 TEMP              0 ****  ****    0 ROOT
