@<TRIPOS>MOLECULE
X8M
   54    56     1     0     0
SMALL
No Charge or Current Charge


@<TRIPOS>ATOM
      1 CAA         -5.8070     0.3530    -1.4650 c3         1 X8M      -0.123600
      2 CAS         -4.9240     0.6120    -0.2230 c3         1 X8M       0.128300
      3 CAB         -5.8220     0.7280     1.0300 c3         1 X8M      -0.123600
      4 NAX         -3.7070    -0.3470    -0.0720 n4         1 X8M      -0.519000
      5 CAC         -4.2580    -1.7790     0.1400 c3         1 X8M       0.076900
      6 CAU         -2.7080    -0.2340    -1.2680 c5         1 X8M       0.127300
      7 CAN         -1.6190    -1.3500    -1.2030 c6         1 X8M      -0.114400
      8 CAL         -2.1360     1.2070    -1.0800 c5         1 X8M      -0.092900
      9 CAM         -2.1470     1.4360     0.4740 c5         1 X8M      -0.092900
     10 CAV         -2.7230     0.1080     1.0610 c5         1 X8M       0.127300
     11 CAO         -1.6260    -0.9700     1.3390 c6         1 X8M      -0.114400
     12 CAT         -0.7650    -1.3130     0.0900 c6         1 X8M       0.178300
     13 OAP          0.3200    -0.3780    -0.0800 os         1 X8M      -0.469100
     14 CAQ          1.4110    -0.3870     0.7520 c          1 X8M       0.587100
     15 OAD          1.5820    -1.2010     1.6490 o          1 X8M      -0.447000
     16 CAW          2.3940     0.7400     0.4120 c3         1 X8M      -0.065400
     17 CAK          2.4330     1.7570     1.5730 c3         1 X8M       0.180600
     18 OAE          3.2200     2.8980     1.2100 oh         1 X8M      -0.638000
     19 CAR          3.7650     0.1710     0.0180 ca         1 X8M      -0.081300
     20 CAI          4.1420     0.1310    -1.3400 ca         1 X8M      -0.085500
     21 CAG          5.3890    -0.3960    -1.7200 ca         1 X8M      -0.104500
     22 CAF          6.2690    -0.8940    -0.7460 ca         1 X8M      -0.090000
     23 CAH          5.9000    -0.8660     0.6090 ca         1 X8M      -0.104500
     24 CAJ          4.6540    -0.3380     0.9900 ca         1 X8M      -0.085500
     25 HAA1        -6.5740     1.1320    -1.5600 hc         1 X8M       0.070367
     26 HAA2        -5.2110     0.3680    -2.3830 hc         1 X8M       0.070367
     27 HAA3        -6.3160    -0.6150    -1.3980 hc         1 X8M       0.070367
     28 HAS         -4.4990     1.6060    -0.3690 hx         1 X8M       0.093700
     29 HAB1        -6.3320    -0.2180     1.2440 hc         1 X8M       0.070367
     30 HAB2        -5.2370     1.0120     1.9110 hc         1 X8M       0.070367
     31 HAB3        -6.5880     1.4990     0.8830 hc         1 X8M       0.070367
     32 HAC1        -4.8560    -2.0650    -0.7270 hx         1 X8M       0.091367
     33 HAC2        -3.4350    -2.4850     0.2580 hx         1 X8M       0.091367
     34 HAC3        -4.8770    -1.7960     1.0380 hx         1 X8M       0.091367
     35 HAU         -3.2740    -0.3420    -2.1960 hx         1 X8M       0.102700
     36 HAV         -3.3000     0.2710     1.9750 hx         1 X8M       0.102700
     37 HAN1        -2.0860    -2.3360    -1.3120 hc         1 X8M       0.090450
     38 HAN2        -0.9570    -1.2540    -2.0730 hc         1 X8M       0.090450
     39 HAL1        -1.1360     1.3150    -1.5150 hc         1 X8M       0.085700
     40 HAL2        -2.7670     1.9450    -1.5870 hc         1 X8M       0.085700
     41 HAT         -0.3190    -2.3110     0.2270 h1         1 X8M       0.095700
     42 HAM1        -1.1540     1.6690     0.8730 hc         1 X8M       0.085700
     43 HAM2        -2.7860     2.2860     0.7370 hc         1 X8M       0.085700
     44 HAO1        -0.9800    -0.6170     2.1550 hc         1 X8M       0.090450
     45 HAO2        -2.0830    -1.8860     1.7340 hc         1 X8M       0.090450
     46 HAW          1.9710     1.2750    -0.4460 hc         1 X8M       0.094700
     47 HAK1         1.4070     2.0730     1.8030 h1         1 X8M       0.015200
     48 HAK2         2.8410     1.2830     2.4750 h1         1 X8M       0.015200
     49 HAE          3.2310     3.4990     1.9880 ho         1 X8M       0.452000
     50 HAI          3.4700     0.5100    -2.1070 ha         1 X8M       0.105500
     51 HAJ          4.3820    -0.3340     2.0430 ha         1 X8M       0.105500
     52 HAG          5.6710    -0.4200    -2.7700 ha         1 X8M       0.119500
     53 HAF          7.2340    -1.3030    -1.0400 ha         1 X8M       0.122000
     54 HAH          6.5790    -1.2550     1.3650 ha         1 X8M       0.119500
@<TRIPOS>BOND
     1     1     2 1   
     2     1    25 1   
     3     1    26 1   
     4     1    27 1   
     5     2     3 1   
     6     2     4 1   
     7     2    28 1   
     8     3    29 1   
     9     3    30 1   
    10     3    31 1   
    11     4     5 1   
    12     4     6 1   
    13     4    10 1   
    14     5    32 1   
    15     5    33 1   
    16     5    34 1   
    17     6     7 1   
    18     6     8 1   
    19     6    35 1   
    20     7    12 1   
    21     7    37 1   
    22     7    38 1   
    23     8     9 1   
    24     8    39 1   
    25     8    40 1   
    26     9    10 1   
    27     9    42 1   
    28     9    43 1   
    29    10    11 1   
    30    10    36 1   
    31    11    12 1   
    32    11    44 1   
    33    11    45 1   
    34    12    13 1   
    35    12    41 1   
    36    13    14 1   
    37    14    15 2   
    38    14    16 1   
    39    16    17 1   
    40    16    19 1   
    41    16    46 1   
    42    17    18 1   
    43    17    47 1   
    44    17    48 1   
    45    18    49 1   
    46    19    20 ar  
    47    19    24 ar  
    48    20    21 ar  
    49    20    50 1   
    50    21    22 ar  
    51    21    52 1   
    52    22    23 ar  
    53    22    53 1   
    54    23    24 ar  
    55    23    54 1   
    56    24    51 1   
@<TRIPOS>SUBSTRUCTURE
     1 X8M         1 TEMP              0 ****  ****    0 ROOT
