@<TRIPOS>MOLECULE
X8N
   46    48     1     0     0
SMALL
abcg2


@<TRIPOS>ATOM
      1 C1          20.5850     8.7340    19.7760 cc         1 X8N       0.559400
      2 C11         24.1520     7.7550    19.6740 ca         1 X8N      -0.094500
      3 C12         23.4350     6.6770    19.1750 ca         1 X8N      -0.113000
      4 C13         25.1060     9.0620    21.5820 cp         1 X8N      -0.014000
      5 C14         25.9960     8.9250    22.6520 ca         1 X8N      -0.098000
      6 C15         26.6590    10.0400    23.1420 ca         1 X8N       0.121000
      7 C16         26.4660    11.3040    22.6020 ca         1 X8N      -0.109000
      8 C17         25.5790    11.4390    21.5400 ca         1 X8N      -0.101000
      9 C18         24.9060    10.3350    21.0330 ca         1 X8N      -0.085000
     10 C20         17.5470     4.5820    20.2600 c          1 X8N       0.700000
     11 C22         18.5870     3.5250    19.8100 c3         1 X8N       0.018300
     12 C24         20.4940     5.0160    19.7320 c3         1 X8N       0.143300
     13 C25         20.2530     6.4110    19.1680 c          1 X8N       0.653100
     14 C28         19.0610     2.6470    20.9660 c3         1 X8N      -0.100100
     15 N2          20.5910     9.2570    18.5430 na         1 X8N      -0.242700
     16 N3          20.8770    10.5710    18.6400 nc         1 X8N      -0.231800
     17 N4          21.0290    10.8160    19.8920 nd         1 X8N      -0.058000
     18 N5          20.8550     9.6990    20.6410 nd         1 X8N      -0.464000
     19 C6          21.9810     4.6460    19.5070 c3         1 X8N      -0.056100
     20 C7          22.9140     5.7040    20.0280 ca         1 X8N      -0.075300
     21 C8          23.1740     5.8170    21.3940 ca         1 X8N      -0.113000
     22 C9          23.8970     6.8890    21.8970 ca         1 X8N      -0.094500
     23 C10         24.3840     7.8880    21.0470 cp         1 X8N      -0.042000
     24 CL19        27.7830     9.8420    24.4740 cl         1 X8N      -0.233000
     25 O21         17.7990     5.7910    20.0430 o          1 X8N      -0.721000
     26 O23         19.6960     4.0630    19.0720 os         1 X8N      -0.443000
     27 O26         20.1260     6.6460    17.9780 o          1 X8N      -0.596100
     28 N27         20.3740     7.4250    20.0940 ns         1 X8N      -0.462400
     29 H1          24.5400     8.4990    18.9900 ha         1 X8N       0.113500
     30 H2          23.2530     6.6040    18.1100 ha         1 X8N       0.118500
     31 H3          26.1840     7.9540    23.0880 ha         1 X8N       0.127000
     32 H4          26.9940    12.1580    23.0020 ha         1 X8N       0.123000
     33 H5          25.4070    12.4180    21.1120 ha         1 X8N       0.119000
     34 H6          24.2030    10.4630    20.2210 ha         1 X8N       0.133000
     35 H7          18.0820     2.8930    19.0760 h1         1 X8N       0.069700
     36 H8          20.2940     5.0340    20.8030 h1         1 X8N       0.060700
     37 H9          18.2060     2.1510    21.4230 hc         1 X8N       0.026033
     38 H10         19.7550     1.8880    20.6000 hc         1 X8N       0.026033
     39 H11         19.5620     3.2330    21.7390 hc         1 X8N       0.026033
     40 H12         20.4190     8.7820    17.6670 hn         1 X8N       0.411000
     41 H13         22.1460     3.6910    20.0080 hc         1 X8N       0.064700
     42 H14         22.1270     4.5000    18.4360 hc         1 X8N       0.064700
     43 H15         22.7770     5.0740    22.0760 ha         1 X8N       0.118500
     44 H16         24.0560     6.9690    22.9650 ha         1 X8N       0.113500
     45 H18         20.4450     7.1940    21.0740 hn         1 X8N       0.357500
     46 O29         16.5170     4.1150    20.8050 o          1 X8N      -0.721000
@<TRIPOS>BOND
     1     1    15 1   
     2     1    18 2   
     3     1    28 1   
     4     2     3 ar  
     5     2    23 ar  
     6     2    29 1   
     7     3    20 ar  
     8     3    30 1   
     9     4     5 ar  
    10     4     9 ar  
    11     4    23 1   
    12     5     6 ar  
    13     5    31 1   
    14     6     7 ar  
    15     6    24 1   
    16     7     8 ar  
    17     7    32 1   
    18     8     9 ar  
    19     8    33 1   
    20     9    34 1   
    21    10    11 1   
    22    10    25 1   
    23    10    46 1   
    24    11    14 1   
    25    11    26 1   
    26    11    35 1   
    27    12    13 1   
    28    12    19 1   
    29    12    26 1   
    30    12    36 1   
    31    13    27 2   
    32    13    28 1   
    33    14    37 1   
    34    14    38 1   
    35    14    39 1   
    36    15    16 1   
    37    15    40 1   
    38    16    17 2   
    39    17    18 1   
    40    19    20 1   
    41    19    41 1   
    42    19    42 1   
    43    20    21 ar  
    44    21    22 ar  
    45    21    43 1   
    46    22    23 ar  
    47    22    44 1   
    48    28    45 1   
@<TRIPOS>SUBSTRUCTURE
     1 X8N         1 TEMP              0 ****  ****    0 ROOT
