@<TRIPOS>MOLECULE
X8N
   46    48     1     0     0
SMALL
No Charge or Current Charge


@<TRIPOS>ATOM
      1 C1          20.0330     9.0110    19.1500 cc         1 X8N       0.559400
      2 C11         24.3040     7.7600    19.7820 ca         1 X8N      -0.094500
      3 C12         23.4760     6.7760    19.2160 ca         1 X8N      -0.113000
      4 C13         25.3340     8.9240    21.7900 cp         1 X8N      -0.014000
      5 C14         26.0810     8.6680    22.9680 ca         1 X8N      -0.098000
      6 C15         26.9050     9.6550    23.5320 ca         1 X8N       0.121000
      7 C16         27.0010    10.9210    22.9350 ca         1 X8N      -0.109000
      8 C17         26.2710    11.1990    21.7680 ca         1 X8N      -0.101000
      9 C18         25.4470    10.2100    21.2030 ca         1 X8N      -0.085000
     10 C20         17.5990     4.2380    20.7320 c          1 X8N       0.700000
     11 C22         18.7280     3.3950    20.0270 c3         1 X8N       0.018300
     12 C24         20.3510     5.2470    19.5790 c3         1 X8N       0.143300
     13 C25         20.0570     6.5780    18.8160 c          1 X8N       0.653100
     14 C28         19.6570     2.6630    21.0320 c3         1 X8N      -0.100100
     15 N2          19.6390     9.4650    17.9330 na         1 X8N      -0.242700
     16 N3          19.5840    10.8220    17.9260 nc         1 X8N      -0.231800
     17 N4          19.9450    11.1630    19.1330 nd         1 X8N      -0.058000
     18 N5          20.2280    10.0620    19.9100 nd         1 X8N      -0.464000
     19 C6          21.8390     4.8410    19.4330 c3         1 X8N      -0.056100
     20 C7          22.7740     5.8790    20.0410 ca         1 X8N      -0.075300
     21 C8          22.9130     5.9730    21.4370 ca         1 X8N      -0.113000
     22 C9          23.7440     6.9560    22.0020 ca         1 X8N      -0.094500
     23 C10         24.4550     7.8720    21.1870 cp         1 X8N      -0.042000
     24 Cl19        27.8220     9.3030    24.9910 cl         1 X8N      -0.233000
     25 O21         17.4600     5.4220    20.4480 o          1 X8N      -0.721000
     26 O23         19.5470     4.1400    19.0690 os         1 X8N      -0.443000
     27 O26         19.6660     6.6200    17.6530 o          1 X8N      -0.596100
     28 N27         20.2180     7.7220    19.5610 ns         1 X8N      -0.462400
     29 H1          24.8430     8.4350    19.1220 ha         1 X8N       0.113500
     30 H2          23.3790     6.7190    18.1340 ha         1 X8N       0.118500
     31 H3          26.0330     7.6910    23.4420 ha         1 X8N       0.127000
     32 H4          27.6400    11.6830    23.3750 ha         1 X8N       0.123000
     33 H5          26.3400    12.1810    21.3040 ha         1 X8N       0.119000
     34 H6          24.8780    10.4500    20.3070 ha         1 X8N       0.133000
     35 H7          18.1880     2.6150    19.4750 h1         1 X8N       0.069700
     36 H8          20.1400     5.4290    20.6400 h1         1 X8N       0.060700
     37 H9          19.0820     1.9480    21.6310 hc         1 X8N       0.026033
     38 H10         20.4350     2.1000    20.5020 hc         1 X8N       0.026033
     39 H11         20.1380     3.3660    21.7210 hc         1 X8N       0.026033
     40 H12         19.4110     8.8930    17.1290 hn         1 X8N       0.411000
     41 H13         22.0060     3.8740    19.9200 hc         1 X8N       0.064700
     42 H14         22.0680     4.6900    18.3710 hc         1 X8N       0.064700
     43 H15         22.3740     5.2890    22.0880 ha         1 X8N       0.118500
     44 H16         23.8230     7.0160    23.0840 ha         1 X8N       0.113500
     45 H18         20.5320     7.5920    20.5100 hn         1 X8N       0.357500
     46 O29         16.8840     3.6700    21.5470 o          1 X8N      -0.721000
@<TRIPOS>BOND
     1     1    15 1   
     2     1    18 2   
     3     1    28 1   
     4     2     3 ar  
     5     2    23 ar  
     6     2    29 1   
     7     3    20 ar  
     8     3    30 1   
     9     4     5 ar  
    10     4     9 ar  
    11     4    23 1   
    12     5     6 ar  
    13     5    31 1   
    14     6     7 ar  
    15     6    24 1   
    16     7     8 ar  
    17     7    32 1   
    18     8     9 ar  
    19     8    33 1   
    20     9    34 1   
    21    10    11 1   
    22    10    25 1   
    23    10    46 1   
    24    11    14 1   
    25    11    26 1   
    26    11    35 1   
    27    12    13 1   
    28    12    19 1   
    29    12    26 1   
    30    12    36 1   
    31    13    27 2   
    32    13    28 1   
    33    14    37 1   
    34    14    38 1   
    35    14    39 1   
    36    15    16 1   
    37    15    40 1   
    38    16    17 2   
    39    17    18 1   
    40    19    20 1   
    41    19    41 1   
    42    19    42 1   
    43    20    21 ar  
    44    21    22 ar  
    45    21    43 1   
    46    22    23 ar  
    47    22    44 1   
    48    28    45 1   
@<TRIPOS>SUBSTRUCTURE
     1 X8N         1 TEMP              0 ****  ****    0 ROOT
