@<TRIPOS>MOLECULE
X8O
   44    47     1     0     0
SMALL
No Charge or Current Charge


@<TRIPOS>ATOM
      1 N          -16.0320    13.8190    -5.0970 na         1 X8O      -0.083000
      2 C          -14.4920    12.7070    -6.8780 c          1 X8O       0.588600
      3 O          -13.7220    13.6410    -7.0700 o          1 X8O      -0.574000
      4 C1         -15.6000    12.7690    -5.9150 cc         1 X8O      -0.251600
      5 C10        -21.2170     4.9190    -3.5430 ca         1 X8O      -0.093000
      6 C11        -21.0170     4.7300    -2.1600 ca         1 X8O      -0.100000
      7 C12        -21.8660     3.8970    -1.4140 ca         1 X8O      -0.139000
      8 C13        -22.9400     3.2500    -2.0390 ca         1 X8O      -0.080000
      9 C14        -23.1660     3.4440    -3.4110 ca         1 X8O      -0.171000
     10 C15        -22.3200     4.2710    -4.1680 ca         1 X8O       0.286000
     11 C16        -18.3260     7.3090    -7.0040 ca         1 X8O      -0.097000
     12 C17        -17.4750     8.4050    -7.2290 ca         1 X8O      -0.090000
     13 C18        -15.3060    10.4240    -7.3260 cc         1 X8O      -0.047400
     14 C19        -13.3440    11.3380    -8.5890 c3         1 X8O       0.072300
     15 C2         -16.4550    11.7330    -5.6800 cd         1 X8O      -0.033800
     16 C3         -17.4470    12.1540    -4.7670 cd         1 X8O      -0.188000
     17 C4         -17.1820    13.4460    -4.3950 cc         1 X8O      -0.143000
     18 C5         -16.3060    10.4610    -6.3590 cd         1 X8O      -0.069400
     19 C6         -17.2110     9.3010    -6.1710 ca         1 X8O      -0.043800
     20 C7         -17.8020     9.0120    -4.9200 ca         1 X8O       0.344900
     21 C8         -18.8920     7.1040    -5.7280 ca         1 X8O       0.280500
     22 C9         -19.8190     5.9070    -5.4930 c          1 X8O       0.510600
     23 N1         -18.6170     7.9530    -4.6940 nb         1 X8O      -0.674000
     24 N2         -20.3090     5.8140    -4.1920 ns         1 X8O      -0.122000
     25 N3         -22.6190     4.4410    -5.4920 nv         1 X8O      -1.060000
     26 N4         -14.4140    11.4820    -7.5740 n          1 X8O      -0.280000
     27 O1         -20.0830     5.0920    -6.3780 o          1 X8O      -0.625100
     28 H1         -15.5870    14.7320    -5.0420 hn         1 X8O       0.368000
     29 H2         -20.1910     5.2300    -1.6570 ha         1 X8O       0.113000
     30 H3         -21.6920     3.7560    -0.3490 ha         1 X8O       0.115000
     31 H4         -23.6010     2.6070    -1.4620 ha         1 X8O       0.112000
     32 H5         -24.0110     2.9490    -3.8840 ha         1 X8O       0.111000
     33 H6         -18.5480     6.6220    -7.8170 ha         1 X8O       0.149000
     34 H7         -17.0610     8.5610    -8.2220 ha         1 X8O       0.123000
     35 H8         -15.0860     9.5600    -7.9430 h4         1 X8O       0.201000
     36 H9         -13.4540    12.1150    -9.3550 h1         1 X8O       0.058367
     37 H10        -12.3630    11.4440    -8.1090 h1         1 X8O       0.058367
     38 H11        -13.3930    10.3550    -9.0750 h1         1 X8O       0.058367
     39 H12        -18.3030    11.5860    -4.4210 ha         1 X8O       0.143000
     40 H13        -17.7060    14.1160    -3.7220 h4         1 X8O       0.152000
     41 H14        -17.5740     9.6120    -4.0420 h4         1 X8O       0.031100
     42 H15        -19.9410     6.5340    -3.5810 hn         1 X8O       0.181000
     43 H16        -21.8370     4.7140    -6.0930 hn         1 X8O       0.453500
     44 H17        -23.3010     3.8180    -5.9190 hn         1 X8O       0.453500
@<TRIPOS>BOND
     1     1     4 1   
     2     1    17 1   
     3     1    28 1   
     4     2     3 2   
     5     2     4 1   
     6     2    26 1   
     7     4    15 2   
     8     5     6 ar  
     9     5    10 ar  
    10     5    24 1   
    11     6     7 ar  
    12     6    29 1   
    13     7     8 ar  
    14     7    30 1   
    15     8     9 ar  
    16     8    31 1   
    17     9    10 ar  
    18     9    32 1   
    19    10    25 1   
    20    11    12 ar  
    21    11    21 ar  
    22    11    33 1   
    23    12    19 ar  
    24    12    34 1   
    25    13    18 2   
    26    13    26 1   
    27    13    35 1   
    28    14    26 1   
    29    14    36 1   
    30    14    37 1   
    31    14    38 1   
    32    15    16 1   
    33    15    18 1   
    34    16    17 2   
    35    16    39 1   
    36    17    40 1   
    37    18    19 1   
    38    19    20 ar  
    39    20    23 ar  
    40    20    41 1   
    41    21    22 1   
    42    21    23 ar  
    43    22    24 1   
    44    22    27 2   
    45    24    42 1   
    46    25    43 1   
    47    25    44 1   
@<TRIPOS>SUBSTRUCTURE
     1 X8O         1 TEMP              0 ****  ****    0 ROOT
