@<TRIPOS>MOLECULE
X8O
   44    47     1     0     0
SMALL
abcg2


@<TRIPOS>ATOM
      1 N          -16.1930    13.8680    -5.3760 na         1 X8O      -0.083000
      2 C          -14.6070    12.6690    -6.8810 c          1 X8O       0.588600
      3 O          -13.8290    13.6040    -7.1230 o          1 X8O      -0.574000
      4 C1         -15.7510    12.7510    -6.0330 cc         1 X8O      -0.251600
      5 C10        -21.1030     4.9420    -3.5300 ca         1 X8O      -0.093000
      6 C11        -20.7660     4.4990    -2.2510 ca         1 X8O      -0.100000
      7 C12        -21.5810     3.6170    -1.5570 ca         1 X8O      -0.139000
      8 C13        -22.7520     3.1630    -2.1590 ca         1 X8O      -0.080000
      9 C14        -23.0940     3.5930    -3.4310 ca         1 X8O      -0.171000
     10 C15        -22.2930     4.4990    -4.1420 ca         1 X8O       0.286000
     11 C16        -18.3480     7.2610    -6.9510 ca         1 X8O      -0.097000
     12 C17        -17.5440     8.3600    -7.2000 ca         1 X8O      -0.090000
     13 C18        -15.2980    10.3510    -7.1880 cc         1 X8O      -0.047400
     14 C19        -13.3020    11.1490    -8.3180 c3         1 X8O       0.072300
     15 C2         -16.6370    11.7020    -5.7610 cd         1 X8O      -0.033800
     16 C3         -17.6510    12.2360    -4.9120 cd         1 X8O      -0.188000
     17 C4         -17.3380    13.5630    -4.7010 cc         1 X8O      -0.143000
     18 C5         -16.3920    10.4300    -6.3760 cd         1 X8O      -0.069400
     19 C6         -17.2480     9.2540    -6.1680 ca         1 X8O      -0.043800
     20 C7         -17.8030     8.9720    -4.9100 ca         1 X8O       0.344900
     21 C8         -18.8610     7.0860    -5.6710 ca         1 X8O       0.280500
     22 C9         -19.7630     5.9230    -5.3790 c          1 X8O       0.510600
     23 N1         -18.5860     7.9290    -4.6680 nb         1 X8O      -0.674000
     24 N2         -20.2630     5.9150    -4.1280 ns         1 X8O      -0.122000
     25 N3         -22.7170     5.0070    -5.3640 nv         1 X8O      -1.060000
     26 N4         -14.4450    11.3980    -7.4350 n          1 X8O      -0.280000
     27 O1         -20.0110     5.0700    -6.2360 o          1 X8O      -0.625100
     28 H1         -15.7440    14.7690    -5.4020 hn         1 X8O       0.368000
     29 H2         -19.8480     4.8630    -1.8070 ha         1 X8O       0.113000
     30 H3         -21.3030     3.2850    -0.5660 ha         1 X8O       0.115000
     31 H4         -23.4010     2.4700    -1.6380 ha         1 X8O       0.112000
     32 H5         -24.0080     3.2430    -3.8970 ha         1 X8O       0.111000
     33 H6         -18.5970     6.5560    -7.7310 ha         1 X8O       0.149000
     34 H7         -17.1620     8.5370    -8.1970 ha         1 X8O       0.123000
     35 H8         -15.0240     9.4280    -7.6780 h4         1 X8O       0.201000
     36 H9         -12.7500    12.0750    -8.4330 h1         1 X8O       0.058367
     37 H10        -12.6550    10.3890    -7.8790 h1         1 X8O       0.058367
     38 H11        -13.6560    10.8080    -9.2900 h1         1 X8O       0.058367
     39 H12        -18.5070    11.7240    -4.5070 ha         1 X8O       0.143000
     40 H13        -17.8500    14.3100    -4.1180 h4         1 X8O       0.152000
     41 H14        -17.5870     9.6150    -4.0660 h4         1 X8O       0.031100
     42 H15        -19.8790     6.6330    -3.5240 hn         1 X8O       0.181000
     43 H16        -21.9720     5.1060    -6.0460 hn         1 X8O       0.453500
     44 H17        -23.5090     4.5120    -5.7500 hn         1 X8O       0.453500
@<TRIPOS>BOND
     1     1     4 1   
     2     1    17 1   
     3     1    28 1   
     4     2     3 2   
     5     2     4 1   
     6     2    26 1   
     7     4    15 2   
     8     5     6 ar  
     9     5    10 ar  
    10     5    24 1   
    11     6     7 ar  
    12     6    29 1   
    13     7     8 ar  
    14     7    30 1   
    15     8     9 ar  
    16     8    31 1   
    17     9    10 ar  
    18     9    32 1   
    19    10    25 1   
    20    11    12 ar  
    21    11    21 ar  
    22    11    33 1   
    23    12    19 ar  
    24    12    34 1   
    25    13    18 2   
    26    13    26 1   
    27    13    35 1   
    28    14    26 1   
    29    14    36 1   
    30    14    37 1   
    31    14    38 1   
    32    15    16 1   
    33    15    18 1   
    34    16    17 2   
    35    16    39 1   
    36    17    40 1   
    37    18    19 1   
    38    19    20 ar  
    39    20    23 ar  
    40    20    41 1   
    41    21    22 1   
    42    21    23 ar  
    43    22    24 1   
    44    22    27 2   
    45    24    42 1   
    46    25    43 1   
    47    25    44 1   
@<TRIPOS>SUBSTRUCTURE
     1 X8O         1 TEMP              0 ****  ****    0 ROOT
