@<TRIPOS>MOLECULE
X8Q
   34    35     1     0     0
SMALL
abcg2


@<TRIPOS>ATOM
      1 O1          15.5160     1.9780     9.7520 o          1 X8Q      -0.891833
      2 O2          16.8230     4.0490    10.5250 o          1 X8Q      -0.891833
      3 O3          16.8830     3.3410     8.0500 o          1 X8Q      -0.891833
      4 O4          18.0130     1.8380     9.8220 os         1 X8Q      -0.398500
      5 N           16.7950    -1.8040    11.3750 n3         1 X8Q      -0.695600
      6 CA          18.0320    -1.0440    11.3790 c3         1 X8Q       0.168800
      7 C2          21.3300    -0.8810    10.1310 cc         1 X8Q      -0.276100
      8 C3          20.0660    -0.3700    10.0470 cd         1 X8Q      -0.056400
      9 C4          19.3040     2.1320     9.8180 ca         1 X8Q       0.371100
     10 C5          19.8370     3.4170     9.7170 ca         1 X8Q      -0.270000
     11 C6          21.2230     3.6410     9.7410 ca         1 X8Q      -0.033000
     12 C7          22.1370     2.6160     9.8640 ca         1 X8Q      -0.305000
     13 C8          21.6070     1.3260     9.9620 ca         1 X8Q      -0.001200
     14 C9          20.2220     1.0580     9.9390 ca         1 X8Q      -0.196800
     15 CM          15.8340    -1.2720    12.3160 c3         1 X8Q       0.159100
     16 CN          17.0160    -3.2150    11.6010 c3         1 X8Q       0.159100
     17 N1          22.2520     0.1300    10.0830 na         1 X8Q      -0.254700
     18 P           16.6610     2.9420     9.4960 p5         1 X8Q       1.247900
     19 HA2         17.7850     0.0090    11.5100 h1         1 X8Q       0.047700
     20 HA1         18.6810    -1.3230    12.2280 h1         1 X8Q       0.047700
     21 HB2         19.0780    -2.2310     9.9070 hc         1 X8Q       0.042200
     22 HB1         18.1500    -0.8980     9.2510 hc         1 X8Q       0.042200
     23 H2          21.6450    -1.9090    10.2190 h4         1 X8Q       0.169000
     24 H5          19.1710     4.2640     9.6470 ha         1 X8Q       0.159000
     25 H6          21.5800     4.6610     9.6620 ha         1 X8Q       0.067000
     26 H7          23.2040     2.7970     9.8820 ha         1 X8Q       0.067000
     27 HM1         15.6090    -0.2330    12.0690 h1         1 X8Q       0.016700
     28 HM3         14.9020    -1.8370    12.2570 h1         1 X8Q       0.016700
     29 HM2         16.1750    -1.3050    13.3630 h1         1 X8Q       0.016700
     30 HN3         17.6960    -3.6270    10.8550 h1         1 X8Q       0.016700
     31 HN2         17.4430    -3.4310    12.5950 h1         1 X8Q       0.016700
     32 HN1         16.0750    -3.7620    11.5190 h1         1 X8Q       0.016700
     33 H1          23.2490     0.0080    10.1180 hn         1 X8Q       0.308000
     34 CB          18.8110    -1.1830    10.0720 c3         1 X8Q       0.008800
@<TRIPOS>BOND
     1     1    18 1   
     2     2    18 1   
     3     3    18 1   
     4     4     9 1   
     5     4    18 1   
     6     5     6 1   
     7     5    15 1   
     8     5    16 1   
     9     6    19 1   
    10     6    20 1   
    11     6    34 1   
    12     7     8 2   
    13     7    17 1   
    14     7    23 1   
    15     8    14 1   
    16     8    34 1   
    17     9    10 ar  
    18     9    14 ar  
    19    10    11 ar  
    20    10    24 1   
    21    11    12 ar  
    22    11    25 1   
    23    12    13 ar  
    24    12    26 1   
    25    13    14 ar  
    26    13    17 1   
    27    15    27 1   
    28    15    28 1   
    29    15    29 1   
    30    16    30 1   
    31    16    31 1   
    32    16    32 1   
    33    17    33 1   
    34    21    34 1   
    35    22    34 1   
@<TRIPOS>SUBSTRUCTURE
     1 X8Q         1 TEMP              0 ****  ****    0 ROOT
