@<TRIPOS>MOLECULE
X8Q
   34    35     1     0     0
SMALL
No Charge or Current Charge


@<TRIPOS>ATOM
      1 O1          15.4880     2.1470     9.1710 o          1 X8Q      -0.891833
      2 O2          16.6730     3.9230    10.3230 o          1 X8Q      -0.891833
      3 O3          17.0150     3.5720     7.9400 o          1 X8Q      -0.891833
      4 O4          17.9730     1.8700     9.5700 os         1 X8Q      -0.398500
      5 N           16.7400    -1.7650    11.5250 n3         1 X8Q      -0.695600
      6 CA          18.0350    -1.0310    11.4460 c3         1 X8Q       0.168800
      7 C2          21.3110    -0.9130    10.2990 cc         1 X8Q      -0.276100
      8 C3          20.0650    -0.3310    10.0960 cd         1 X8Q      -0.056400
      9 C4          19.3110     2.1510     9.6820 ca         1 X8Q       0.371100
     10 C5          19.8430     3.4610     9.5660 ca         1 X8Q      -0.270000
     11 C6          21.2310     3.6940     9.6830 ca         1 X8Q      -0.033000
     12 C7          22.1110     2.6210     9.9170 ca         1 X8Q      -0.305000
     13 C8          21.5700     1.3390    10.0290 ca         1 X8Q      -0.001200
     14 C9          20.2270     1.1050     9.9210 ca         1 X8Q      -0.196800
     15 CM          15.9950    -1.4390    12.7590 c3         1 X8Q       0.159100
     16 CN          16.8670    -3.2280    11.3310 c3         1 X8Q       0.159100
     17 N1          22.2320     0.1510    10.2530 na         1 X8Q      -0.254700
     18 P           16.7740     2.8970     9.2470 p5         1 X8Q       1.247900
     19 HA2         17.8620     0.0320    11.6630 h1         1 X8Q       0.047700
     20 HA1         18.7180    -1.4020    12.2240 h1         1 X8Q       0.047700
     21 HB2         18.9840    -2.1510     9.8410 hc         1 X8Q       0.042200
     22 HB1         18.1060    -0.7370     9.2930 hc         1 X8Q       0.042200
     23 H2          21.5990    -1.9450    10.4690 h4         1 X8Q       0.169000
     24 H5          19.1900     4.3080     9.3860 ha         1 X8Q       0.159000
     25 H6          21.6210     4.7050     9.5910 ha         1 X8Q       0.067000
     26 H7          23.1810     2.7880    10.0060 ha         1 X8Q       0.067000
     27 HM1         15.8380    -0.3560    12.8420 h1         1 X8Q       0.016700
     28 HM3         15.0110    -1.9250    12.7580 h1         1 X8Q       0.016700
     29 HM2         16.5460    -1.7770    13.6480 h1         1 X8Q       0.016700
     30 HN3         17.2660    -3.4650    10.3370 h1         1 X8Q       0.016700
     31 HN2         17.5330    -3.6660    12.0880 h1         1 X8Q       0.016700
     32 HN1         15.8860    -3.7140    11.4160 h1         1 X8Q       0.016700
     33 H1          23.2370     0.0680    10.3680 hn         1 X8Q       0.308000
     34 CB          18.7680    -1.1050    10.0850 c3         1 X8Q       0.008800
@<TRIPOS>BOND
     1     1    18 1   
     2     2    18 1   
     3     3    18 1   
     4     4     9 1   
     5     4    18 1   
     6     5     6 1   
     7     5    15 1   
     8     5    16 1   
     9     6    19 1   
    10     6    20 1   
    11     6    34 1   
    12     7     8 2   
    13     7    17 1   
    14     7    23 1   
    15     8    14 1   
    16     8    34 1   
    17     9    10 ar  
    18     9    14 ar  
    19    10    11 ar  
    20    10    24 1   
    21    11    12 ar  
    22    11    25 1   
    23    12    13 ar  
    24    12    26 1   
    25    13    14 ar  
    26    13    17 1   
    27    15    27 1   
    28    15    28 1   
    29    15    29 1   
    30    16    30 1   
    31    16    31 1   
    32    16    32 1   
    33    17    33 1   
    34    21    34 1   
    35    22    34 1   
@<TRIPOS>SUBSTRUCTURE
     1 X8Q         1 TEMP              0 ****  ****    0 ROOT
