@<TRIPOS>MOLECULE
X8R
   30    32     1     0     0
SMALL
No Charge or Current Charge


@<TRIPOS>ATOM
      1 C3         -18.7950    13.4780   -31.4190 c6         1 X8R       0.147500
      2 C2         -19.7430    14.2000   -30.4110 c6         1 X8R      -0.097650
      3 C8         -19.1380    16.4030   -31.4640 c6         1 X8R      -0.097650
      4 C1         -19.1900    15.6220   -30.1240 c6         1 X8R       0.109200
      5 C5         -16.7910    15.5990   -31.8300 c6         1 X8R      -0.097650
      6 C10        -18.5630    16.2270   -27.2370 c3         1 X8R      -0.172100
      7 C4         -18.2060    15.6560   -32.4610 c6         1 X8R       0.147500
      8 C6         -16.8600    14.8190   -30.4870 c6         1 X8R       0.109200
      9 C7         -17.3810    13.3830   -30.7780 c6         1 X8R      -0.097650
     10 C9         -17.5550    15.5350   -28.1570 c          1 X8R       0.603100
     11 N1         -18.6740    14.2510   -32.6990 n3         1 X8R      -0.453100
     12 N2         -17.8110    15.4930   -29.5480 n          1 X8R      -0.416800
     13 O1         -19.9900    14.2860   -33.3690 oh         1 X8R      -0.493300
     14 O2         -16.5170    15.0810   -27.6920 o          1 X8R      -0.620100
     15 H1         -19.1710    12.4630   -31.6160 h1         1 X8R       0.074700
     16 H2         -20.7640    14.2570   -30.8100 hc         1 X8R       0.060700
     17 H3         -19.8090    13.6260   -29.4770 hc         1 X8R       0.060700
     18 H4         -18.7650    17.4210   -31.2890 hc         1 X8R       0.060700
     19 H5         -20.1470    16.5130   -31.8830 hc         1 X8R       0.060700
     20 H6         -19.8700    16.1480   -29.4410 h1         1 X8R       0.081200
     21 H7         -16.0880    15.1110   -32.5180 hc         1 X8R       0.060700
     22 H8         -16.4070    16.6140   -31.6570 hc         1 X8R       0.060700
     23 H9         -18.1910    16.3310   -26.2110 hc         1 X8R       0.060033
     24 H10        -18.8460    17.1940   -27.6660 hc         1 X8R       0.060033
     25 H11        -19.5030    15.6650   -27.2520 hc         1 X8R       0.060033
     26 H12        -18.1570    16.2130   -33.4080 h1         1 X8R       0.074700
     27 H13        -15.8520    14.7670   -30.0510 h1         1 X8R       0.081200
     28 H14        -17.4210    12.7980   -29.8490 hc         1 X8R       0.060700
     29 H15        -16.6930    12.8550   -31.4520 hc         1 X8R       0.060700
     30 H16        -19.8420    13.8330   -34.2330 ho         1 X8R       0.452000
@<TRIPOS>BOND
     1     1     2 1   
     2     1     9 1   
     3     1    11 1   
     4     1    15 1   
     5     2     4 1   
     6     2    16 1   
     7     2    17 1   
     8     3     4 1   
     9     3     7 1   
    10     3    18 1   
    11     3    19 1   
    12     4    12 1   
    13     4    20 1   
    14     5     7 1   
    15     5     8 1   
    16     5    21 1   
    17     5    22 1   
    18     6    10 1   
    19     6    23 1   
    20     6    24 1   
    21     6    25 1   
    22     7    11 1   
    23     7    26 1   
    24     8     9 1   
    25     8    12 1   
    26     8    27 1   
    27     9    28 1   
    28     9    29 1   
    29    10    12 1   
    30    10    14 2   
    31    11    13 1   
    32    13    30 1   
@<TRIPOS>SUBSTRUCTURE
     1 X8R         1 TEMP              0 ****  ****    0 ROOT
