@<TRIPOS>MOLECULE
X8R
   30    32     1     0     0
SMALL
abcg2


@<TRIPOS>ATOM
      1 C3         -18.8100    13.4710   -31.4750 c6         1 X8R       0.147500
      2 C2         -19.7700    14.1140   -30.4650 c6         1 X8R      -0.097650
      3 C8         -19.1410    16.3550   -31.3540 c6         1 X8R      -0.097650
      4 C1         -19.2250    15.4960   -30.0870 c6         1 X8R       0.109200
      5 C5         -16.8050    15.5560   -31.7120 c6         1 X8R      -0.097650
      6 C10        -18.5460    16.3330   -27.3790 c3         1 X8R      -0.172100
      7 C4         -18.1940    15.6690   -32.3470 c6         1 X8R       0.147500
      8 C6         -16.9130    14.7080   -30.4420 c6         1 X8R       0.109200
      9 C7         -17.4320    13.3180   -30.8230 c6         1 X8R      -0.097650
     10 C9         -17.4980    15.7100   -28.2760 c          1 X8R       0.603100
     11 N1         -18.6310    14.2970   -32.6900 n3         1 X8R      -0.453100
     12 N2         -17.8730    15.3400   -29.5200 n          1 X8R      -0.416800
     13 O1         -19.9260    14.4040   -33.3340 oh         1 X8R      -0.493300
     14 O2         -16.3410    15.5510   -27.8630 o          1 X8R      -0.620100
     15 H1         -19.1850    12.5020   -31.8040 h1         1 X8R       0.074700
     16 H2         -20.7650    14.2220   -30.8970 hc         1 X8R       0.060700
     17 H3         -19.8520    13.4810   -29.5790 hc         1 X8R       0.060700
     18 H4         -18.7670    17.3520   -31.1140 hc         1 X8R       0.060700
     19 H5         -20.1370    16.4610   -31.7840 hc         1 X8R       0.060700
     20 H6         -19.8660    15.9680   -29.3520 h1         1 X8R       0.081200
     21 H7         -16.1050    15.0850   -32.4050 hc         1 X8R       0.060700
     22 H8         -16.4320    16.5540   -31.4740 hc         1 X8R       0.060700
     23 H9         -18.0820    16.5530   -26.4210 hc         1 X8R       0.060033
     24 H10        -18.9380    17.2580   -27.8070 hc         1 X8R       0.060033
     25 H11        -19.3880    15.6560   -27.2220 hc         1 X8R       0.060033
     26 H12        -18.1410    16.2280   -33.2810 h1         1 X8R       0.074700
     27 H13        -15.9600    14.6450   -29.9280 h1         1 X8R       0.081200
     28 H14        -17.5200    12.6880   -29.9370 hc         1 X8R       0.060700
     29 H15        -16.7330    12.8440   -31.5140 hc         1 X8R       0.060700
     30 H16        -19.7630    14.0220   -34.2060 ho         1 X8R       0.452000
@<TRIPOS>BOND
     1     1     2 1   
     2     1     9 1   
     3     1    11 1   
     4     1    15 1   
     5     2     4 1   
     6     2    16 1   
     7     2    17 1   
     8     3     4 1   
     9     3     7 1   
    10     3    18 1   
    11     3    19 1   
    12     4    12 1   
    13     4    20 1   
    14     5     7 1   
    15     5     8 1   
    16     5    21 1   
    17     5    22 1   
    18     6    10 1   
    19     6    23 1   
    20     6    24 1   
    21     6    25 1   
    22     7    11 1   
    23     7    26 1   
    24     8     9 1   
    25     8    12 1   
    26     8    27 1   
    27     9    28 1   
    28     9    29 1   
    29    10    12 1   
    30    10    14 2   
    31    11    13 1   
    32    13    30 1   
@<TRIPOS>SUBSTRUCTURE
     1 X8R         1 TEMP              0 ****  ****    0 ROOT
