@<TRIPOS>MOLECULE
X8T
   45    48     1     0     0
SMALL
No Charge or Current Charge


@<TRIPOS>ATOM
      1 C1          15.1260   -14.8490    34.3520 cc         1 X8T      -0.250600
      2 C2          15.9620   -13.7930    34.5690 cd         1 X8T      -0.031800
      3 C3          16.9790   -14.1900    35.4670 cd         1 X8T      -0.187000
      4 O1          19.4370    -7.0930    33.5370 o          1 X8T      -0.622100
      5 C4          16.7500   -15.4860    35.8470 cc         1 X8T      -0.147000
      6 C5          15.7760   -12.5270    33.8910 cd         1 X8T      -0.071400
      7 C6          16.6630   -11.3480    34.0560 ca         1 X8T       0.008200
      8 C7          17.2310   -11.0290    35.3060 ca         1 X8T      -0.117500
      9 C8          18.0570    -9.9030    35.4660 ca         1 X8T      -0.067000
     10 C9          18.3340    -9.0500    34.3710 ca         1 X8T      -0.152600
     11 C10         19.2240    -7.8250    34.5000 c          1 X8T       0.617700
     12 C11         20.6500    -6.6040    36.2860 ca         1 X8T      -0.099000
     13 C12         21.7230    -6.0110    35.5620 ca         1 X8T       0.292000
     14 C13         22.5680    -5.0860    36.1970 ca         1 X8T      -0.171000
     15 C14         22.3700    -4.7400    37.5430 ca         1 X8T      -0.078000
     16 C15         21.3250    -5.3320    38.2660 ca         1 X8T      -0.140000
     17 N1          19.7490    -7.5880    35.7680 ns         1 X8T      -0.138000
     18 C16         20.4780    -6.2620    37.6430 ca         1 X8T      -0.101000
     19 N2          21.9950    -6.3270    34.2590 nv         1 X8T      -1.058000
     20 N3          13.8880   -13.5910    32.7080 n          1 X8T      -0.279000
     21 C17         17.7480    -9.3570    33.1240 ca         1 X8T      -0.067000
     22 C18         16.9190   -10.4820    32.9730 ca         1 X8T      -0.117500
     23 C19         14.7620   -12.5150    32.9390 cc         1 X8T      -0.048400
     24 C20         12.8000   -13.4730    31.7100 c3         1 X8T       0.085300
     25 N           15.5950   -15.8870    35.1650 na         1 X8T      -0.084000
     26 C           14.0030   -14.8120    33.4060 c          1 X8T       0.581600
     27 O           13.2490   -15.7620    33.2290 o          1 X8T      -0.576000
     28 H1          17.8260   -13.5980    35.7940 ha         1 X8T       0.141000
     29 H2          17.2990   -16.1430    36.5120 h4         1 X8T       0.151000
     30 H3          16.9950   -11.6250    36.1820 ha         1 X8T       0.120500
     31 H4          18.4620    -9.7060    36.4550 ha         1 X8T       0.122000
     32 H5          23.3900    -4.6330    35.6490 ha         1 X8T       0.112000
     33 H6          23.0290    -4.0220    38.0250 ha         1 X8T       0.112000
     34 H7          21.1730    -5.0730    39.3120 ha         1 X8T       0.116000
     35 H8          19.4270    -8.2410    36.4690 hn         1 X8T       0.153000
     36 H9          19.6760    -6.7170    38.2210 ha         1 X8T       0.109000
     37 H10         21.2040    -6.6720    33.7100 hn         1 X8T       0.453500
     38 H11         22.6600    -5.7500    33.7500 hn         1 X8T       0.453500
     39 H12         17.9330    -8.7240    32.2590 ha         1 X8T       0.122000
     40 H13         16.5060   -10.6900    31.9890 ha         1 X8T       0.120500
     41 H14         14.5170   -11.6580    32.3220 h4         1 X8T       0.202000
     42 H15         12.9170   -14.2490    30.9420 h1         1 X8T       0.054367
     43 H16         11.8290   -13.6010    32.2050 h1         1 X8T       0.054367
     44 H17         12.8200   -12.4910    31.2220 h1         1 X8T       0.054367
     45 H18         15.1710   -16.8090    35.2300 hn         1 X8T       0.367000
@<TRIPOS>BOND
     1     1     2 2   
     2     1    25 1   
     3     1    26 1   
     4     2     3 1   
     5     2     6 1   
     6     3     5 2   
     7     3    28 1   
     8     4    11 2   
     9     5    25 1   
    10     5    29 1   
    11     6     7 1   
    12     6    23 2   
    13     7     8 ar  
    14     7    22 ar  
    15     8     9 ar  
    16     8    30 1   
    17     9    10 ar  
    18     9    31 1   
    19    10    11 1   
    20    10    21 ar  
    21    11    17 1   
    22    12    13 ar  
    23    12    17 1   
    24    12    18 ar  
    25    13    14 ar  
    26    13    19 1   
    27    14    15 ar  
    28    14    32 1   
    29    15    16 ar  
    30    15    33 1   
    31    16    18 ar  
    32    16    34 1   
    33    17    35 1   
    34    18    36 1   
    35    19    37 1   
    36    19    38 1   
    37    20    23 1   
    38    20    24 1   
    39    20    26 1   
    40    21    22 ar  
    41    21    39 1   
    42    22    40 1   
    43    23    41 1   
    44    24    42 1   
    45    24    43 1   
    46    24    44 1   
    47    25    45 1   
    48    26    27 2   
@<TRIPOS>SUBSTRUCTURE
     1 X8T         1 TEMP              0 ****  ****    0 ROOT
