@<TRIPOS>MOLECULE
X8T
   45    48     1     0     0
SMALL
abcg2


@<TRIPOS>ATOM
      1 C1          15.1610   -14.8260    34.2630 cc         1 X8T      -0.250600
      2 C2          16.0310   -13.7690    34.5620 cd         1 X8T      -0.031800
      3 C3          16.9710   -14.2740    35.5080 cd         1 X8T      -0.187000
      4 O1          19.1270    -6.9390    33.8920 o          1 X8T      -0.622100
      5 C4          16.6350   -15.5900    35.7450 cc         1 X8T      -0.147000
      6 C5          15.8490   -12.5210    33.8810 cd         1 X8T      -0.071400
      7 C6          16.6950   -11.3400    34.1190 ca         1 X8T       0.008200
      8 C7          17.1290   -11.0100    35.4090 ca         1 X8T      -0.117500
      9 C8          17.9160    -9.8920    35.6350 ca         1 X8T      -0.067000
     10 C9          18.2950    -9.0610    34.5780 ca         1 X8T      -0.152600
     11 C10         19.1290    -7.8330    34.7450 c          1 X8T       0.617700
     12 C11         20.6830    -6.6660    36.2920 ca         1 X8T      -0.099000
     13 C12         21.6690    -6.0850    35.4710 ca         1 X8T       0.292000
     14 C13         22.4480    -5.0520    36.0170 ca         1 X8T      -0.171000
     15 C14         22.2810    -4.6320    37.3270 ca         1 X8T      -0.078000
     16 C15         21.3120    -5.2230    38.1360 ca         1 X8T      -0.140000
     17 N1          19.8940    -7.7680    35.8610 ns         1 X8T      -0.138000
     18 C16         20.5210    -6.2320    37.6070 ca         1 X8T      -0.101000
     19 N2          21.9300    -6.5670    34.1950 nv         1 X8T      -1.058000
     20 N3          13.9850   -13.5180    32.7100 n          1 X8T      -0.279000
     21 C17         17.8530    -9.3770    33.2910 ca         1 X8T      -0.067000
     22 C18         17.0780   -10.5010    33.0630 ca         1 X8T      -0.117500
     23 C19         14.8250   -12.4660    32.9810 cc         1 X8T      -0.048400
     24 C20         12.9070   -13.3510    31.7350 c3         1 X8T       0.085300
     25 N           15.5430   -15.9180    34.9950 na         1 X8T      -0.084000
     26 C           14.0910   -14.7640    33.3240 c          1 X8T       0.581600
     27 O           13.3120   -15.6900    33.0460 o          1 X8T      -0.576000
     28 H1          17.7950   -13.7490    35.9590 ha         1 X8T       0.141000
     29 H2          17.0950   -16.3160    36.3950 h4         1 X8T       0.151000
     30 H3          16.8240   -11.6170    36.2500 ha         1 X8T       0.120500
     31 H4          18.1990    -9.6650    36.6550 ha         1 X8T       0.122000
     32 H5          23.2040    -4.5940    35.3910 ha         1 X8T       0.112000
     33 H6          22.9060    -3.8380    37.7160 ha         1 X8T       0.112000
     34 H7          21.1720    -4.9010    39.1580 ha         1 X8T       0.116000
     35 H8          19.7990    -8.5150    36.5310 hn         1 X8T       0.153000
     36 H9          19.7580    -6.7070    38.2130 ha         1 X8T       0.109000
     37 H10         21.0910    -6.7870    33.6690 hn         1 X8T       0.453500
     38 H11         22.5550    -5.9760    33.6630 hn         1 X8T       0.453500
     39 H12         18.1410    -8.7400    32.4670 ha         1 X8T       0.122000
     40 H13         16.7800   -10.7450    32.0520 ha         1 X8T       0.120500
     41 H14         14.6020   -11.5610    32.4360 h4         1 X8T       0.202000
     42 H15         13.0270   -14.0640    30.9200 h1         1 X8T       0.054367
     43 H16         11.9430   -13.5260    32.2100 h1         1 X8T       0.054367
     44 H17         12.9440   -12.3390    31.3440 h1         1 X8T       0.054367
     45 H18         15.0930   -16.8190    34.9680 hn         1 X8T       0.367000
@<TRIPOS>BOND
     1     1     2 2   
     2     1    25 1   
     3     1    26 1   
     4     2     3 1   
     5     2     6 1   
     6     3     5 2   
     7     3    28 1   
     8     4    11 2   
     9     5    25 1   
    10     5    29 1   
    11     6     7 1   
    12     6    23 2   
    13     7     8 ar  
    14     7    22 ar  
    15     8     9 ar  
    16     8    30 1   
    17     9    10 ar  
    18     9    31 1   
    19    10    11 1   
    20    10    21 ar  
    21    11    17 1   
    22    12    13 ar  
    23    12    17 1   
    24    12    18 ar  
    25    13    14 ar  
    26    13    19 1   
    27    14    15 ar  
    28    14    32 1   
    29    15    16 ar  
    30    15    33 1   
    31    16    18 ar  
    32    16    34 1   
    33    17    35 1   
    34    18    36 1   
    35    19    37 1   
    36    19    38 1   
    37    20    23 1   
    38    20    24 1   
    39    20    26 1   
    40    21    22 ar  
    41    21    39 1   
    42    22    40 1   
    43    23    41 1   
    44    24    42 1   
    45    24    43 1   
    46    24    44 1   
    47    25    45 1   
    48    26    27 2   
@<TRIPOS>SUBSTRUCTURE
     1 X8T         1 TEMP              0 ****  ****    0 ROOT
