@<TRIPOS>MOLECULE
X8U
   66    71     1     0     0
SMALL
No Charge or Current Charge


@<TRIPOS>ATOM
      1 O2          -0.8450     2.5680     0.5770 o          1 X8U      -0.700500
      2 C20         -1.8600     1.8960     0.7420 c          1 X8U       0.627500
      3 O1          -2.9380     2.4420     0.9400 o          1 X8U      -0.700500
      4 C19         -1.7480     0.3690     0.6930 cc         1 X8U       0.247500
      5 N4          -0.5360    -0.2720     0.4610 nc         1 X8U      -0.579000
      6 C21         -2.8230    -0.5000     0.8660 cd         1 X8U      -0.174300
      7 C22         -4.2870    -0.2260     1.1380 c3         1 X8U       0.014900
      8 C23         -5.0890     0.0230    -0.1570 c3         1 X8U      -0.071400
      9 C24         -6.5910     0.2780     0.0970 c3         1 X8U      -0.069400
     10 C25         -7.3930     0.5220    -1.1980 c3         1 X8U      -0.037100
     11 C26         -8.8700     0.7670    -0.9200 ca         1 X8U      -0.062300
     12 C31         -9.3440     2.0740    -0.6930 ca         1 X8U      -0.108500
     13 C30        -10.7070     2.2990    -0.4320 ca         1 X8U      -0.115000
     14 C29        -11.6040     1.2180    -0.3950 ca         1 X8U      -0.125000
     15 C28        -11.1370    -0.0880    -0.6180 ca         1 X8U      -0.115000
     16 C27         -9.7740    -0.3130    -0.8790 ca         1 X8U      -0.108500
     17 S2          -2.3120    -2.1740     0.7290 ss         1 X8U      -0.196400
     18 C18         -0.6760    -1.5880     0.4540 cd         1 X8U       0.453900
     19 C15          0.4680    -2.5060     0.2260 ca         1 X8U      -0.100500
     20 C16          0.2870    -3.9060     0.2210 ca         1 X8U      -0.097000
     21 C17          1.3740    -4.7650     0.0050 ca         1 X8U      -0.127000
     22 C12          2.6630    -4.2510    -0.2140 ca         1 X8U      -0.079300
     23 C11          3.8200    -5.2230    -0.4470 c6         1 X8U      -0.027100
     24 C10          4.9350    -4.5950    -1.3020 c6         1 X8U      -0.063400
     25 C9           5.4180    -3.2690    -0.6780 c6         1 X8U      -0.142700
     26 C14          1.7700    -1.9950     0.0120 ca         1 X8U      -0.038000
     27 C13          2.8760    -2.8520    -0.2100 ca         1 X8U      -0.124900
     28 C8           4.2590    -2.2860    -0.4170 ce         1 X8U       0.373900
     29 N3           4.4480    -0.9950    -0.3600 n2         1 X8U      -0.348400
     30 N2           5.6870    -0.4300    -0.1200 nu         1 X8U      -0.583500
     31 C7           5.9440     0.9300    -0.0530 cc         1 X8U       0.658100
     32 S1           7.5870     1.5360     0.2670 ss         1 X8U      -0.094200
     33 C4           6.8780     3.1360     0.1540 ca         1 X8U      -0.179000
     34 C3           7.5640     4.3500     0.3010 ca         1 X8U      -0.080000
     35 C2           6.8390     5.5510     0.1800 ca         1 X8U      -0.122000
     36 N1           4.9600     1.8210    -0.2280 nd         1 X8U      -0.533100
     37 C5           5.5210     3.0860    -0.1040 ca         1 X8U       0.134400
     38 C6           4.7900     4.2790    -0.2270 ca         1 X8U      -0.050000
     39 C1           5.4530     5.5160    -0.0840 ca         1 X8U      -0.109000
     40 H221        -4.7260    -1.0880     1.6560 hc         1 X8U       0.052700
     41 H222        -4.4120     0.6160     1.8280 hc         1 X8U       0.052700
     42 H231        -4.6610     0.8820    -0.6880 hc         1 X8U       0.050700
     43 H232        -4.9770    -0.8460    -0.8180 hc         1 X8U       0.050700
     44 H241        -7.0200    -0.5830     0.6260 hc         1 X8U       0.038200
     45 H242        -6.7030     1.1470     0.7570 hc         1 X8U       0.038200
     46 H251        -6.9640     1.3800    -1.7310 hc         1 X8U       0.047200
     47 H252        -7.2740    -0.3410    -1.8640 hc         1 X8U       0.047200
     48 H31         -8.6560     2.9160    -0.7180 ha         1 X8U       0.114000
     49 H27         -9.4200    -1.3280    -1.0480 ha         1 X8U       0.114000
     50 H30        -11.0680     3.3100    -0.2580 ha         1 X8U       0.103500
     51 H29        -12.6590     1.3920    -0.1920 ha         1 X8U       0.101000
     52 H28        -11.8300    -0.9260    -0.5870 ha         1 X8U       0.103500
     53 H16         -0.6940    -4.3440     0.3840 ha         1 X8U       0.116000
     54 H14          1.9210    -0.9170     0.0180 ha         1 X8U       0.179000
     55 H17          1.2100    -5.8400     0.0070 ha         1 X8U       0.099000
     56 H111         4.2300    -5.5380     0.5230 hc         1 X8U       0.043200
     57 H112         3.4560    -6.1350    -0.9400 hc         1 X8U       0.043200
     58 H101         5.7750    -5.2950    -1.4010 hc         1 X8U       0.041700
     59 H102         4.5570    -4.4090    -2.3170 hc         1 X8U       0.041700
     60 H91C         5.9480    -3.4670     0.2630 hc         1 X8U       0.042200
     61 H92C         6.1470    -2.8200    -1.3650 hc         1 X8U       0.042200
     62 HA           6.5270    -0.9900     0.0380 hn         1 X8U       0.491000
     63 H3           8.6330     4.3660     0.5040 ha         1 X8U       0.111000
     64 HB           7.3480     6.5060     0.2890 ha         1 X8U       0.105000
     65 H1           4.8950     6.4450    -0.1770 ha         1 X8U       0.118000
     66 H6           3.7220     4.2460    -0.4290 ha         1 X8U       0.166000
@<TRIPOS>BOND
     1     1     2 1   
     2     2     3 1   
     3     2     4 1   
     4     4     5 1   
     5     4     6 2   
     6     5    18 2   
     7     6     7 1   
     8     6    17 1   
     9     7     8 1   
    10     7    40 1   
    11     7    41 1   
    12     8     9 1   
    13     8    42 1   
    14     8    43 1   
    15     9    10 1   
    16     9    44 1   
    17     9    45 1   
    18    10    11 1   
    19    10    46 1   
    20    10    47 1   
    21    11    12 ar  
    22    11    16 ar  
    23    12    13 ar  
    24    12    48 1   
    25    13    14 ar  
    26    13    50 1   
    27    14    15 ar  
    28    14    51 1   
    29    15    16 ar  
    30    15    52 1   
    31    16    49 1   
    32    17    18 1   
    33    18    19 1   
    34    19    20 ar  
    35    19    26 ar  
    36    20    21 ar  
    37    20    53 1   
    38    21    22 ar  
    39    21    55 1   
    40    22    23 1   
    41    22    27 ar  
    42    23    24 1   
    43    23    56 1   
    44    23    57 1   
    45    24    25 1   
    46    24    58 1   
    47    24    59 1   
    48    25    28 1   
    49    25    60 1   
    50    25    61 1   
    51    26    27 ar  
    52    26    54 1   
    53    27    28 1   
    54    28    29 2   
    55    29    30 1   
    56    30    31 1   
    57    30    62 1   
    58    31    32 1   
    59    31    36 2   
    60    32    33 1   
    61    33    34 ar  
    62    33    37 ar  
    63    34    35 ar  
    64    34    63 1   
    65    35    39 ar  
    66    35    64 1   
    67    36    37 1   
    68    37    38 ar  
    69    38    39 ar  
    70    38    66 1   
    71    39    65 1   
@<TRIPOS>SUBSTRUCTURE
     1 X8U         1 TEMP              0 ****  ****    0 ROOT
