@<TRIPOS>MOLECULE
X8U
   66    71     1     0     0
SMALL
abcg2


@<TRIPOS>ATOM
      1 O2          -0.5240     2.3660     0.6740 o          1 X8U      -0.700500
      2 C20         -1.6310     1.8080     0.7570 c          1 X8U       0.627500
      3 O1          -2.7450     2.3560     0.8790 o          1 X8U      -0.700500
      4 C19         -1.6220     0.2910     0.7050 cc         1 X8U       0.247500
      5 N4          -0.4420    -0.3590     0.4760 nc         1 X8U      -0.579000
      6 C21         -2.7060    -0.5310     0.8790 cd         1 X8U      -0.174300
      7 C22         -4.1510    -0.2340     1.1110 c3         1 X8U       0.014900
      8 C23         -4.9080     0.0360    -0.1890 c3         1 X8U      -0.071400
      9 C24         -6.3790     0.3410     0.0580 c3         1 X8U      -0.069400
     10 C25         -7.1510     0.6010    -1.2360 c3         1 X8U      -0.037100
     11 C26         -8.6020     0.8970    -0.9790 ca         1 X8U      -0.062300
     12 C31         -9.0400     2.2050    -0.7820 ca         1 X8U      -0.108500
     13 C30        -10.3720     2.4780    -0.4980 ca         1 X8U      -0.115000
     14 C29        -11.2910     1.4410    -0.4060 ca         1 X8U      -0.125000
     15 C28        -10.8670     0.1320    -0.6000 ca         1 X8U      -0.115000
     16 C27         -9.5340    -0.1340    -0.8840 ca         1 X8U      -0.108500
     17 S2          -2.1980    -2.1710     0.7310 ss         1 X8U      -0.196400
     18 C18         -0.5710    -1.6450     0.4560 cd         1 X8U       0.453900
     19 C15          0.5370    -2.5790     0.2420 ca         1 X8U      -0.100500
     20 C16          0.3540    -3.9640     0.2470 ca         1 X8U      -0.097000
     21 C17          1.4320    -4.8050     0.0510 ca         1 X8U      -0.127000
     22 C12          2.7180    -4.3070    -0.1510 ca         1 X8U      -0.079300
     23 C11          3.8760    -5.2400    -0.3530 c6         1 X8U      -0.027100
     24 C10          4.9470    -4.6030    -1.2230 c6         1 X8U      -0.063400
     25 C9           5.4060    -3.2800    -0.6250 c6         1 X8U      -0.142700
     26 C14          1.8140    -2.0750     0.0360 ca         1 X8U      -0.038000
     27 C13          2.9070    -2.9190    -0.1570 ca         1 X8U      -0.124900
     28 C8           4.2590    -2.3510    -0.3400 ce         1 X8U       0.373900
     29 N3           4.3570    -1.0840    -0.2070 n2         1 X8U      -0.348400
     30 N2           5.5500    -0.4870    -0.3220 nu         1 X8U      -0.583500
     31 C7           5.6200     0.8600    -0.2170 cc         1 X8U       0.658100
     32 S1           7.2040     1.6190    -0.3400 ss         1 X8U      -0.094200
     33 C4           6.4210     3.1570    -0.1180 ca         1 X8U      -0.179000
     34 C3           6.9910     4.4200    -0.0810 ca         1 X8U      -0.080000
     35 C2           6.1490     5.5070     0.1100 ca         1 X8U      -0.122000
     36 N1           4.6190     1.6480    -0.0320 nd         1 X8U      -0.533100
     37 C5           5.0390     2.9540     0.0290 ca         1 X8U       0.134400
     38 C6           4.2110     4.0590     0.2200 ca         1 X8U      -0.050000
     39 C1           4.7740     5.3240     0.2590 ca         1 X8U      -0.109000
     40 H221        -4.6190    -1.0720     1.6360 hc         1 X8U       0.052700
     41 H222        -4.2310     0.6360     1.7600 hc         1 X8U       0.052700
     42 H231        -4.4340     0.8790    -0.6980 hc         1 X8U       0.050700
     43 H232        -4.8190    -0.8290    -0.8530 hc         1 X8U       0.050700
     44 H241        -6.8440    -0.4940     0.5920 hc         1 X8U       0.038200
     45 H242        -6.4680     1.2130     0.7140 hc         1 X8U       0.038200
     46 H251        -6.6900     1.4370    -1.7690 hc         1 X8U       0.047200
     47 H252        -7.0600    -0.2720    -1.8880 hc         1 X8U       0.047200
     48 H31         -8.3290     3.0210    -0.8520 ha         1 X8U       0.114000
     49 H27         -9.2140    -1.1590    -1.0380 ha         1 X8U       0.114000
     50 H30        -10.6920     3.5010    -0.3510 ha         1 X8U       0.103500
     51 H29        -12.3310     1.6510    -0.1900 ha         1 X8U       0.101000
     52 H28        -11.5770    -0.6830    -0.5340 ha         1 X8U       0.103500
     53 H16         -0.6280    -4.3960     0.4000 ha         1 X8U       0.116000
     54 H14          1.9630    -1.0040     0.0300 ha         1 X8U       0.179000
     55 H17          1.2760    -5.8770     0.0510 ha         1 X8U       0.099000
     56 H111         4.3060    -5.5020     0.6210 hc         1 X8U       0.043200
     57 H112         3.5270    -6.1750    -0.7940 hc         1 X8U       0.043200
     58 H101         5.8020    -5.2720    -1.3220 hc         1 X8U       0.041700
     59 H102         4.5520    -4.4370    -2.2290 hc         1 X8U       0.041700
     60 H91C         5.9440    -3.4700     0.3120 hc         1 X8U       0.042200
     61 H92C         6.1230    -2.8090    -1.3020 hc         1 X8U       0.042200
     62 HA           6.3990    -1.0180    -0.4720 hn         1 X8U       0.491000
     63 H3           8.0580     4.5580    -0.1960 ha         1 X8U       0.111000
     64 HB           6.5670     6.5040     0.1420 ha         1 X8U       0.105000
     65 H1           4.1350     6.1850     0.4080 ha         1 X8U       0.118000
     66 H6           3.1440     3.9180     0.3330 ha         1 X8U       0.166000
@<TRIPOS>BOND
     1     1     2 1   
     2     2     3 1   
     3     2     4 1   
     4     4     5 1   
     5     4     6 2   
     6     5    18 2   
     7     6     7 1   
     8     6    17 1   
     9     7     8 1   
    10     7    40 1   
    11     7    41 1   
    12     8     9 1   
    13     8    42 1   
    14     8    43 1   
    15     9    10 1   
    16     9    44 1   
    17     9    45 1   
    18    10    11 1   
    19    10    46 1   
    20    10    47 1   
    21    11    12 ar  
    22    11    16 ar  
    23    12    13 ar  
    24    12    48 1   
    25    13    14 ar  
    26    13    50 1   
    27    14    15 ar  
    28    14    51 1   
    29    15    16 ar  
    30    15    52 1   
    31    16    49 1   
    32    17    18 1   
    33    18    19 1   
    34    19    20 ar  
    35    19    26 ar  
    36    20    21 ar  
    37    20    53 1   
    38    21    22 ar  
    39    21    55 1   
    40    22    23 1   
    41    22    27 ar  
    42    23    24 1   
    43    23    56 1   
    44    23    57 1   
    45    24    25 1   
    46    24    58 1   
    47    24    59 1   
    48    25    28 1   
    49    25    60 1   
    50    25    61 1   
    51    26    27 ar  
    52    26    54 1   
    53    27    28 1   
    54    28    29 2   
    55    29    30 1   
    56    30    31 1   
    57    30    62 1   
    58    31    32 1   
    59    31    36 2   
    60    32    33 1   
    61    33    34 ar  
    62    33    37 ar  
    63    34    35 ar  
    64    34    63 1   
    65    35    39 ar  
    66    35    64 1   
    67    36    37 1   
    68    37    38 ar  
    69    38    39 ar  
    70    38    66 1   
    71    39    65 1   
@<TRIPOS>SUBSTRUCTURE
     1 X8U         1 TEMP              0 ****  ****    0 ROOT
