@<TRIPOS>MOLECULE
X8V
   43    46     1     0     0
SMALL
bcc


@<TRIPOS>ATOM
      1 N1          10.0610    16.8570    16.6440 n2         1 X8V      -0.826100
      2 N3           9.9880    23.0070     7.8080 na         1 X8V      -0.169400
      3 C4           8.5860    22.2800     9.7130 cc         1 X8V      -0.017900
      4 C5           9.3210    20.1750    12.9390 ca         1 X8V       0.004000
      5 C6          10.6610    20.2340    13.3290 ca         1 X8V      -0.128000
      6 C7          11.1200    19.5080    14.4150 ca         1 X8V      -0.093000
      7 C8          10.2580    18.7010    15.1540 ca         1 X8V      -0.139900
      8 C10          8.4610    19.3540    13.6770 ca         1 X8V      -0.128000
      9 C13          7.9280    23.8760     7.8580 cd         1 X8V      -0.164200
     10 C15          9.8910    23.8100     6.7090 ca         1 X8V      -0.049200
     11 C17          9.1780    25.5530     4.7090 ca         1 X8V      -0.144000
     12 C14          8.5990    24.3810     6.7130 ca         1 X8V      -0.088800
     13 C16          8.2510    25.2670     5.6860 ca         1 X8V      -0.078000
     14 C18         10.4620    24.9700     4.7140 ca         1 X8V      -0.178900
     15 N5          12.2850    24.3370     3.2720 nv         1 X8V      -0.921800
     16 N4          11.5220    26.4920     3.1080 n2         1 X8V      -0.844100
     17 C19         10.8260    24.0850     5.7180 ca         1 X8V      -0.114000
     18 C12          8.8040    23.0350     8.5020 cc         1 X8V       0.023700
     19 S1           9.8820    21.5720    10.6040 ss         1 X8V      -0.091800
     20 C3           7.3870    22.0340    10.3300 cd         1 X8V      -0.128000
     21 C2           7.5190    21.2790    11.5140 cd         1 X8V      -0.139000
     22 C1           8.8150    20.9420    11.8070 cc         1 X8V       0.000900
     23 C11         10.7220    17.9010    16.3210 ce         1 X8V       0.659800
     24 N2          11.8700    18.3450    16.9150 nv         1 X8V      -0.964800
     25 C9           8.9210    18.6330    14.7610 ca         1 X8V      -0.093000
     26 H1          10.4520    16.4110    17.4700 hn         1 X8V       0.373400
     27 H2          10.7830    22.4230     8.0150 hn         1 X8V       0.302700
     28 H3          11.3640    20.8600    12.7920 ha         1 X8V       0.135500
     29 H4          12.1710    19.5710    14.6690 ha         1 X8V       0.147000
     30 H5           7.4200    19.2660    13.3950 ha         1 X8V       0.135500
     31 H6           6.9280    24.1170     8.1850 ha         1 X8V       0.159000
     32 H7           8.9050    26.2240     3.9040 ha         1 X8V       0.135000
     33 H8           7.2660    25.7160     5.6550 ha         1 X8V       0.137000
     34 H9          11.9580    23.3870     3.3290 hn         1 X8V       0.410800
     35 H10         12.8590    24.5270     2.4660 hn         1 X8V       0.410800
     36 H11         10.8970    27.1470     3.5620 hn         1 X8V       0.389400
     37 H12         11.8120    23.6390     5.7490 ha         1 X8V       0.144000
     38 H13          6.4390    22.3810     9.9430 ha         1 X8V       0.159000
     39 H14          6.6780    21.0060    12.1360 ha         1 X8V       0.157000
     40 H15         12.1340    17.9110    17.7850 hn         1 X8V       0.405300
     41 H16         12.0780    19.3290    16.8810 hn         1 X8V       0.405300
     42 H17          8.2370    18.0050    15.3140 ha         1 X8V       0.147000
     43 C20         11.4290    25.3340     3.6430 ce         1 X8V       0.659800
@<TRIPOS>BOND
     1     1    23 2   
     2     1    26 1   
     3     2    10 1   
     4     2    18 1   
     5     2    27 1   
     6     3    18 1   
     7     3    19 1   
     8     3    20 2   
     9     4     5 ar  
    10     4     8 ar  
    11     4    22 1   
    12     5     6 ar  
    13     5    28 1   
    14     6     7 ar  
    15     6    29 1   
    16     7    23 1   
    17     7    25 ar  
    18     8    25 ar  
    19     8    30 1   
    20     9    12 1   
    21     9    18 2   
    22     9    31 1   
    23    10    12 ar  
    24    10    17 ar  
    25    11    13 ar  
    26    11    14 ar  
    27    11    32 1   
    28    12    13 ar  
    29    13    33 1   
    30    14    17 ar  
    31    14    43 1   
    32    15    34 1   
    33    15    35 1   
    34    15    43 1   
    35    16    36 1   
    36    16    43 2   
    37    17    37 1   
    38    19    22 1   
    39    20    21 1   
    40    20    38 1   
    41    21    22 2   
    42    21    39 1   
    43    23    24 1   
    44    24    40 1   
    45    24    41 1   
    46    25    42 1   
@<TRIPOS>SUBSTRUCTURE
     1 X8V         1 TEMP              0 ****  ****    0 ROOT
