@<TRIPOS>MOLECULE
X8V
   43    46     1     0     0
SMALL
No Charge or Current Charge


@<TRIPOS>ATOM
      1 N1           9.7890    16.7570    16.8640 n2         1 X8V      -0.826100
      2 N3          10.2220    23.1170     7.7480 na         1 X8V      -0.219700
      3 C4           8.9000    22.3180     9.7470 cc         1 X8V      -0.162800
      4 C5           9.4370    20.1520    13.0070 ca         1 X8V       0.004000
      5 C6          10.7560    20.1460    13.4980 ca         1 X8V      -0.110000
      6 C7          11.1060    19.3720    14.6180 ca         1 X8V      -0.075000
      7 C8          10.1370    18.5870    15.2860 ca         1 X8V      -0.139900
      8 C10          8.4750    19.3490    13.6520 ca         1 X8V      -0.110000
      9 C13          8.0890    23.7600     7.8230 cd         1 X8V      -0.214200
     10 C15          9.9790    23.8860     6.6170 ca         1 X8V      -0.049200
     11 C17          9.0070    25.4820     4.5560 ca         1 X8V      -0.126000
     12 C14          8.6760    24.3050     6.6240 ca         1 X8V      -0.088800
     13 C16          8.1470    25.1080     5.6110 ca         1 X8V      -0.060000
     14 C18         10.3650    25.0420     4.5180 ca         1 X8V      -0.178900
     15 N5          12.2950    24.6660     3.0740 nv         1 X8V      -1.032200
     16 N4          11.0650    26.5000     2.6920 n2         1 X8V      -0.844100
     17 C19         10.8570    24.2390     5.5850 ca         1 X8V      -0.096000
     18 C12          9.0450    23.0300     8.5100 cc         1 X8V       0.023700
     19 S1          10.1950    21.4190    10.5380 ss         1 X8V       0.198000
     20 C3           7.7270    22.2620    10.4640 cd         1 X8V      -0.110000
     21 C2           7.8370    21.4930    11.6560 cd         1 X8V      -0.121000
     22 C1           9.0930    20.9610    11.8340 cc         1 X8V      -0.144000
     23 C11         10.5010    17.7280    16.4630 ce         1 X8V       0.659800
     24 N2          11.5850    18.0700    17.1930 nv         1 X8V      -1.075200
     25 C9           8.8210    18.5720    14.7710 ca         1 X8V      -0.075000
     26 H1          10.3460    16.2110    17.5310 hn         1 X8V       0.373400
     27 H2          11.1080    22.6870     7.9840 hn         1 X8V       0.353000
     28 H3          11.5220    20.7470    13.0130 ha         1 X8V       0.117500
     29 H4          12.1400    19.3820    14.9540 ha         1 X8V       0.129000
     30 H5           7.4550    19.3070    13.2800 ha         1 X8V       0.117500
     31 H6           7.0590    23.9010     8.1380 ha         1 X8V       0.209000
     32 H7           8.6060    26.1040     3.7580 ha         1 X8V       0.117000
     33 H8           7.1100    25.4360     5.6360 ha         1 X8V       0.119000
     34 H9          12.1750    23.6960     3.3370 hn         1 X8V       0.466000
     35 H10         12.6660    24.8320     2.1460 hn         1 X8V       0.466000
     36 H11         10.2800    27.0150     3.1110 hn         1 X8V       0.389400
     37 H12         11.8930    23.9090     5.6170 ha         1 X8V       0.126000
     38 H13          6.8070    22.7530    10.1630 ha         1 X8V       0.141000
     39 H14          7.0110    21.3570    12.3480 ha         1 X8V       0.139000
     40 H15         11.5710    17.7810    18.1640 hn         1 X8V       0.460500
     41 H16         11.9390    19.0060    17.0300 hn         1 X8V       0.460500
     42 H17          8.0550    17.9590    15.2420 ha         1 X8V       0.129000
     43 C20         11.2780    25.4790     3.4130 ce         1 X8V       0.659800
@<TRIPOS>BOND
     1     1    23 2   
     2     1    26 1   
     3     2    10 1   
     4     2    18 1   
     5     2    27 1   
     6     3    18 1   
     7     3    19 1   
     8     3    20 2   
     9     4     5 ar  
    10     4     8 ar  
    11     4    22 1   
    12     5     6 ar  
    13     5    28 1   
    14     6     7 ar  
    15     6    29 1   
    16     7    23 1   
    17     7    25 ar  
    18     8    25 ar  
    19     8    30 1   
    20     9    12 1   
    21     9    18 2   
    22     9    31 1   
    23    10    12 ar  
    24    10    17 ar  
    25    11    13 ar  
    26    11    14 ar  
    27    11    32 1   
    28    12    13 ar  
    29    13    33 1   
    30    14    17 ar  
    31    14    43 1   
    32    15    34 1   
    33    15    35 1   
    34    15    43 1   
    35    16    36 1   
    36    16    43 2   
    37    17    37 1   
    38    19    22 1   
    39    20    21 1   
    40    20    38 1   
    41    21    22 2   
    42    21    39 1   
    43    23    24 1   
    44    24    40 1   
    45    24    41 1   
    46    25    42 1   
@<TRIPOS>SUBSTRUCTURE
     1 X8V         1 TEMP              0 ****  ****    0 ROOT
