@<TRIPOS>MOLECULE
X8W
   32    33     1     0     0
SMALL
No Charge or Current Charge


@<TRIPOS>ATOM
      1 CAJ         -4.0850    -1.2480     0.1120 ca         1 X8W      -0.043000
      2 CAH         -5.3670    -0.6710     0.1070 ca         1 X8W      -0.185000
      3 CAO         -5.5130     0.7180     0.0090 ca         1 X8W       0.157100
      4 OAB         -6.7600     1.2670     0.0040 oh         1 X8W      -0.528100
      5 CAI         -4.3780     1.5360    -0.0850 ca         1 X8W      -0.185000
      6 CAK         -3.0930     0.9630    -0.0790 ca         1 X8W      -0.043000
      7 CAQ         -2.9360    -0.4360     0.0220 ca         1 X8W      -0.118800
      8 CAG         -1.5870    -1.0770     0.0290 ce         1 X8W      -0.063200
      9 CAF         -0.3550    -0.4840     0.0530 cf         1 X8W      -0.295200
     10 CAN          0.9330    -1.2300     0.0710 c          1 X8W       0.624900
     11 OAA          0.9380    -2.4550     0.1400 o          1 X8W      -0.607100
     12 CAT          2.2410    -0.4980     0.0780 ca         1 X8W      -0.361600
     13 CAR          3.2810    -0.9520     0.9070 ca         1 X8W       0.281100
     14 OAD          3.1240    -2.0680     1.6610 oh         1 X8W      -0.538600
     15 CAL          4.4980    -0.2730     0.9650 ca         1 X8W      -0.324500
     16 CAP          4.7030     0.8560     0.1760 ca         1 X8W       0.255100
     17 OAC          5.8920     1.5080     0.2340 oh         1 X8W      -0.519100
     18 CAM          3.6980     1.3020    -0.6840 ca         1 X8W      -0.324500
     19 CAS          2.4740     0.6250    -0.7370 ca         1 X8W       0.281100
     20 OAE          1.5400     1.0510    -1.6250 oh         1 X8W      -0.538600
     21 HAJ         -3.9880    -2.3290     0.1900 ha         1 X8W       0.117000
     22 HAH         -6.2470    -1.3060     0.1780 ha         1 X8W       0.124000
     23 HAB         -6.6690     2.2410    -0.0700 ho         1 X8W       0.468000
     24 HAI         -4.4800     2.6160    -0.1630 ha         1 X8W       0.124000
     25 HAK         -2.2280     1.6170    -0.1570 ha         1 X8W       0.117000
     26 HAD          2.3210    -2.5200     1.3020 ho         1 X8W       0.500000
     27 HAL          5.2890    -0.6300     1.6180 ha         1 X8W       0.134000
     28 HAC          5.8500     2.2640    -0.3870 ho         1 X8W       0.471000
     29 HAM          3.8700     2.1690    -1.3150 ha         1 X8W       0.134000
     30 HAE          1.9180     1.8080    -2.1180 ho         1 X8W       0.500000
     31 HAG         -1.6200    -2.1690     0.0170 ha         1 X8W       0.191000
     32 HAF         -0.2780     0.5980     0.0810 ha         1 X8W       0.197000
@<TRIPOS>BOND
     1     1     2 ar  
     2     1     7 ar  
     3     1    21 1   
     4     2     3 ar  
     5     2    22 1   
     6     3     4 1   
     7     3     5 ar  
     8     4    23 1   
     9     5     6 ar  
    10     5    24 1   
    11     6     7 ar  
    12     6    25 1   
    13     7     8 1   
    14     8     9 2   
    15     8    31 1   
    16     9    10 1   
    17     9    32 1   
    18    10    11 2   
    19    10    12 1   
    20    12    13 ar  
    21    12    19 ar  
    22    13    14 1   
    23    13    15 ar  
    24    14    26 1   
    25    15    16 ar  
    26    15    27 1   
    27    16    17 1   
    28    16    18 ar  
    29    17    28 1   
    30    18    19 ar  
    31    18    29 1   
    32    19    20 1   
    33    20    30 1   
@<TRIPOS>SUBSTRUCTURE
     1 X8W         1 TEMP              0 ****  ****    0 ROOT
