@<TRIPOS>MOLECULE
X8W
   32    33     1     0     0
SMALL
abcg2


@<TRIPOS>ATOM
      1 CAJ         -3.9940    -1.2240     0.0550 ca         1 X8W      -0.043000
      2 CAH         -5.2810    -0.7370    -0.0700 ca         1 X8W      -0.185000
      3 CAO         -5.4910     0.6370    -0.1790 ca         1 X8W       0.157100
      4 OAB         -6.7550     1.0700    -0.2950 oh         1 X8W      -0.528100
      5 CAI         -4.3950     1.5040    -0.1630 ca         1 X8W      -0.185000
      6 CAK         -3.1160     1.0010    -0.0380 ca         1 X8W      -0.043000
      7 CAQ         -2.8830    -0.3740     0.0740 ca         1 X8W      -0.118800
      8 CAG         -1.5610    -0.9580     0.2160 ce         1 X8W      -0.063200
      9 CAF         -0.3860    -0.3060     0.2280 cf         1 X8W      -0.295200
     10 CAN          0.8690    -1.0410     0.4230 c          1 X8W       0.624900
     11 OAA          0.8170    -2.2070     0.8560 o          1 X8W      -0.607100
     12 CAT          2.1760    -0.4240     0.1950 ca         1 X8W      -0.361600
     13 CAR          3.3260    -1.0540     0.7600 ca         1 X8W       0.281100
     14 OAD          3.2280    -2.2070     1.4070 oh         1 X8W      -0.538600
     15 CAL          4.5860    -0.4800     0.6760 ca         1 X8W      -0.324500
     16 CAP          4.7480     0.7110    -0.0180 ca         1 X8W       0.255100
     17 OAC          5.9800     1.2230    -0.0830 oh         1 X8W      -0.519100
     18 CAM          3.6630     1.3280    -0.6390 ca         1 X8W      -0.324500
     19 CAS          2.4030     0.7620    -0.5430 ca         1 X8W       0.281100
     20 OAE          1.3720     1.3200    -1.1860 oh         1 X8W      -0.538600
     21 HAJ         -3.8450    -2.2940     0.1400 ha         1 X8W       0.117000
     22 HAH         -6.1250    -1.4150    -0.0810 ha         1 X8W       0.124000
     23 HAB         -6.7850     2.0320    -0.3440 ho         1 X8W       0.468000
     24 HAI         -4.5450     2.5740    -0.2470 ha         1 X8W       0.124000
     25 HAK         -2.2900     1.7010    -0.0280 ha         1 X8W       0.117000
     26 HAD          2.2820    -2.5030     1.3130 ho         1 X8W       0.500000
     27 HAL          5.4350    -0.9730     1.1320 ha         1 X8W       0.134000
     28 HAC          5.9870     2.0410    -0.5950 ho         1 X8W       0.471000
     29 HAM          3.8070     2.2350    -1.2170 ha         1 X8W       0.134000
     30 HAE          1.6520     2.1230    -1.6420 ho         1 X8W       0.500000
     31 HAG         -1.5490    -2.0400     0.3090 ha         1 X8W       0.191000
     32 HAF         -0.3450     0.7660     0.1170 ha         1 X8W       0.197000
@<TRIPOS>BOND
     1     1     2 ar  
     2     1     7 ar  
     3     1    21 1   
     4     2     3 ar  
     5     2    22 1   
     6     3     4 1   
     7     3     5 ar  
     8     4    23 1   
     9     5     6 ar  
    10     5    24 1   
    11     6     7 ar  
    12     6    25 1   
    13     7     8 1   
    14     8     9 2   
    15     8    31 1   
    16     9    10 1   
    17     9    32 1   
    18    10    11 2   
    19    10    12 1   
    20    12    13 ar  
    21    12    19 ar  
    22    13    14 1   
    23    13    15 ar  
    24    14    26 1   
    25    15    16 ar  
    26    15    27 1   
    27    16    17 1   
    28    16    18 ar  
    29    17    28 1   
    30    18    19 ar  
    31    18    29 1   
    32    19    20 1   
    33    20    30 1   
@<TRIPOS>SUBSTRUCTURE
     1 X8W         1 TEMP              0 ****  ****    0 ROOT
