@<TRIPOS>MOLECULE
X8X
   22    22     1     0     0
SMALL
abcg2


@<TRIPOS>ATOM
      1 O1           6.8740     7.9300    26.2030 o          1 X8X      -0.474000
      2 C1           7.6740     8.7560    26.5370 c          1 X8X       0.623100
      3 O2           7.9230     9.0390    27.8150 os         1 X8X      -0.398100
      4 C2           8.8530    10.1330    27.9320 c5         1 X8X       0.165300
      5 C3           8.4370    10.9840    29.1160 c3         1 X8X       0.177300
      6 O3           8.4870    10.1570    30.2510 oh         1 X8X      -0.645000
      7 C4           9.3500    12.1930    29.2840 c3         1 X8X       0.122600
      8 O4           8.9520    12.8350    30.4770 oh         1 X8X      -0.673000
      9 C5           8.8110    10.8140    26.5610 c5         1 X8X       0.142300
     10 O5          10.0070    11.4910    26.3230 oh         1 X8X      -0.646000
     11 C6           8.5490     9.6230    25.6520 c5         1 X8X       0.022300
     12 O6           7.9610     9.9820    24.4450 oh         1 X8X      -0.634000
     13 H1           9.8540     9.7190    28.1060 h1         1 X8X       0.087700
     14 H2           7.4120    11.3460    28.9340 h1         1 X8X       0.053700
     15 H3           8.4070    10.7250    31.0260 ho         1 X8X       0.465000
     16 H4          10.3930    11.8590    29.3370 h1         1 X8X       0.039700
     17 H5           9.2570    12.8580    28.4210 h1         1 X8X       0.039700
     18 H6           9.6560    13.4260    30.7570 ho         1 X8X       0.455000
     19 H7           7.9400    11.4860    26.5160 h1         1 X8X       0.066700
     20 H8           9.8820    12.0880    25.5790 ho         1 X8X       0.466000
     21 H9           9.5010     9.0830    25.5150 h1         1 X8X       0.072700
     22 H10          7.9620     9.2200    23.8560 ho         1 X8X       0.469000
@<TRIPOS>BOND
     1     1     2 2   
     2     2     3 1   
     3     2    11 1   
     4     3     4 1   
     5     4     5 1   
     6     4     9 1   
     7     4    13 1   
     8     5     6 1   
     9     5     7 1   
    10     5    14 1   
    11     6    15 1   
    12     7     8 1   
    13     7    16 1   
    14     7    17 1   
    15     8    18 1   
    16     9    10 1   
    17     9    11 1   
    18     9    19 1   
    19    10    20 1   
    20    11    12 1   
    21    11    21 1   
    22    12    22 1   
@<TRIPOS>SUBSTRUCTURE
     1 X8X         1 TEMP              0 ****  ****    0 ROOT
