@<TRIPOS>MOLECULE
X8X
   22    22     1     0     0
SMALL
No Charge or Current Charge


@<TRIPOS>ATOM
      1 O1           6.8700     7.9140    25.9870 o          1 X8X      -0.474000
      2 C1           7.6950     8.6990    26.4320 c          1 X8X       0.623100
      3 O2           7.7410     9.0720    27.7470 os         1 X8X      -0.398100
      4 C2           8.7560    10.0940    27.9360 c5         1 X8X       0.165300
      5 C3           8.4200    10.9590    29.1900 c3         1 X8X       0.177300
      6 O3           8.5120    10.1640    30.3850 oh         1 X8X      -0.645000
      7 C4           9.3460    12.1900    29.3890 c3         1 X8X       0.122600
      8 O4           9.0730    12.8100    30.6610 oh         1 X8X      -0.673000
      9 C5           8.7610    10.8500    26.5690 c5         1 X8X       0.142300
     10 O5           9.9450    11.6110    26.3060 oh         1 X8X      -0.646000
     11 C6           8.6380     9.6330    25.6220 c5         1 X8X       0.022300
     12 O6           8.1370     9.9940    24.3110 oh         1 X8X      -0.634000
     13 H1           9.7250     9.6010    28.0960 h1         1 X8X       0.087700
     14 H2           7.3940    11.3330    29.0720 h1         1 X8X       0.053700
     15 H3           8.6540    10.8320    31.0970 ho         1 X8X       0.465000
     16 H4          10.3960    11.8690    29.3350 h1         1 X8X       0.039700
     17 H5           9.1730    12.9060    28.5740 h1         1 X8X       0.039700
     18 H6           9.6250    13.6250    30.7130 ho         1 X8X       0.455000
     19 H7           7.8690    11.4900    26.4900 h1         1 X8X       0.066700
     20 H8           9.9250    11.8280    25.3460 ho         1 X8X       0.466000
     21 H9           9.6020     9.1110    25.5400 h1         1 X8X       0.072700
     22 H10          7.8870     9.1620    23.8450 ho         1 X8X       0.469000
@<TRIPOS>BOND
     1     1     2 2   
     2     2     3 1   
     3     2    11 1   
     4     3     4 1   
     5     4     5 1   
     6     4     9 1   
     7     4    13 1   
     8     5     6 1   
     9     5     7 1   
    10     5    14 1   
    11     6    15 1   
    12     7     8 1   
    13     7    16 1   
    14     7    17 1   
    15     8    18 1   
    16     9    10 1   
    17     9    11 1   
    18     9    19 1   
    19    10    20 1   
    20    11    12 1   
    21    11    21 1   
    22    12    22 1   
@<TRIPOS>SUBSTRUCTURE
     1 X8X         1 TEMP              0 ****  ****    0 ROOT
