@<TRIPOS>MOLECULE
X8Z
   28    28     1     0     0
SMALL
abcg2


@<TRIPOS>ATOM
      1 O1           0.1610    -1.4540     0.6610 o          1 X8Z      -0.610100
      2 C4           0.2920    -0.2890     0.2940 c          1 X8Z       0.613100
      3 C2           1.6340     0.2240    -0.2100 c3         1 X8Z      -0.134700
      4 C1           2.7640    -0.5440     0.4670 c3         1 X8Z       0.118600
      5 S            4.3720     0.1550    -0.0480 sh         1 X8Z      -0.504800
      6 C3           1.6530     0.0890    -1.7360 c3         1 X8Z      -0.081100
      7 H11C         2.6830    -0.4540     1.5500 h1         1 X8Z       0.069200
      8 H12C         2.7280    -1.6010     0.2070 h1         1 X8Z       0.069200
      9 H31C         0.8150     0.6190    -2.1890 hc         1 X8Z       0.045367
     10 H32C         2.5700     0.5000    -2.1590 hc         1 X8Z       0.045367
     11 H33C         1.5840    -0.9590    -2.0310 hc         1 X8Z       0.045367
     12 H            5.1260    -0.4870     0.8500 hs         1 X8Z       0.199800
     13 H2           1.7500     1.2800     0.0460 hc         1 X8Z       0.051700
     14 N           -0.7400     0.5640     0.2860 n          1 X8Z      -0.377800
     15 C8          -2.0900     0.0660     0.5120 c5         1 X8Z      -0.030300
     16 C9          -2.5020    -1.0380    -0.4840 c          1 X8Z       0.727000
     17 O3          -1.9870    -0.9990    -1.6140 o          1 X8Z      -0.723000
     18 O2          -3.3770    -1.8280    -0.0750 o          1 X8Z      -0.723000
     19 C5          -0.7170     1.9760    -0.0650 c5         1 X8Z       0.110000
     20 C6          -2.0180     2.4840     0.5370 c5         1 X8Z      -0.097400
     21 C7          -2.9690     1.3130     0.3130 c5         1 X8Z      -0.077400
     22 H8          -2.1840    -0.3030     1.5380 h1         1 X8Z       0.051700
     23 H51C         0.1540     2.4830     0.3460 h1         1 X8Z       0.029700
     24 H52C        -0.7100     2.1140    -1.1510 h1         1 X8Z       0.029700
     25 H71C        -3.3510     1.3470    -0.7100 hc         1 X8Z       0.047200
     26 H72C        -3.8250     1.3200     0.9860 hc         1 X8Z       0.047200
     27 H61C        -1.8850     2.6730     1.6040 hc         1 X8Z       0.029200
     28 H62C        -2.3560     3.4090     0.0710 hc         1 X8Z       0.029200
@<TRIPOS>BOND
     1     1     2 2   
     2     2     3 1   
     3     2    14 1   
     4     3     4 1   
     5     3     6 1   
     6     3    13 1   
     7     4     5 1   
     8     4     7 1   
     9     4     8 1   
    10     5    12 1   
    11     6     9 1   
    12     6    10 1   
    13     6    11 1   
    14    14    15 1   
    15    14    19 1   
    16    15    16 1   
    17    15    21 1   
    18    15    22 1   
    19    16    17 1   
    20    16    18 1   
    21    19    20 1   
    22    19    23 1   
    23    19    24 1   
    24    20    21 1   
    25    20    27 1   
    26    20    28 1   
    27    21    25 1   
    28    21    26 1   
@<TRIPOS>SUBSTRUCTURE
     1 X8Z         1 TEMP              0 ****  ****    0 ROOT
