@<TRIPOS>MOLECULE
X8Z
   28    28     1     0     0
SMALL
No Charge or Current Charge


@<TRIPOS>ATOM
      1 O1          -0.0050    -1.6380    -0.1800 o          1 X8Z      -0.610100
      2 C4           0.2040    -0.4340    -0.2690 c          1 X8Z       0.613100
      3 C2           1.5900     0.0880    -0.7240 c3         1 X8Z      -0.134700
      4 C1           2.5780    -0.0350     0.4560 c3         1 X8Z       0.118600
      5 S            4.2170     0.7830     0.1550 sh         1 X8Z      -0.504800
      6 C3           2.0870    -0.6440    -1.9980 c3         1 X8Z      -0.081100
      7 H11C         2.1330     0.4260     1.3490 h1         1 X8Z       0.069200
      8 H12C         2.7510    -1.0960     0.6820 h1         1 X8Z       0.069200
      9 H31C         1.3450    -0.5620    -2.8010 hc         1 X8Z       0.045367
     10 H32C         3.0250    -0.2080    -2.3620 hc         1 X8Z       0.045367
     11 H33C         2.2600    -1.7090    -1.7990 hc         1 X8Z       0.045367
     12 H            4.7620     0.4670     1.3570 hs         1 X8Z       0.199800
     13 H2           1.5180     1.1550    -0.9590 hc         1 X8Z       0.051700
     14 N           -0.8080     0.4930     0.0740 n          1 X8Z      -0.377800
     15 C8          -2.2060     0.0800     0.4060 c5         1 X8Z      -0.030300
     16 C9          -2.9280    -0.8400    -0.6410 c          1 X8Z       0.727000
     17 O3          -2.8160    -0.6030    -1.8390 o          1 X8Z      -0.723000
     18 O2          -3.5850    -1.7890    -0.2340 o          1 X8Z      -0.723000
     19 C5          -0.5780     1.9390     0.2800 c5         1 X8Z       0.110000
     20 C6          -1.8290     2.3520     1.0970 c5         1 X8Z      -0.097400
     21 C7          -2.9280     1.4580     0.4770 c5         1 X8Z      -0.077400
     22 H8          -2.2240    -0.4230     1.3820 h1         1 X8Z       0.051700
     23 H51C         0.3490     2.1440     0.8330 h1         1 X8Z       0.029700
     24 H52C        -0.5380     2.4630    -0.6840 h1         1 X8Z       0.029700
     25 H71C        -3.2100     1.8220    -0.5180 hc         1 X8Z       0.047200
     26 H72C        -3.8400     1.4220     1.0840 hc         1 X8Z       0.047200
     27 H61C        -1.6950     2.1300     2.1630 hc         1 X8Z       0.029200
     28 H62C        -2.0520     3.4220     1.0100 hc         1 X8Z       0.029200
@<TRIPOS>BOND
     1     1     2 2   
     2     2     3 1   
     3     2    14 1   
     4     3     4 1   
     5     3     6 1   
     6     3    13 1   
     7     4     5 1   
     8     4     7 1   
     9     4     8 1   
    10     5    12 1   
    11     6     9 1   
    12     6    10 1   
    13     6    11 1   
    14    14    15 1   
    15    14    19 1   
    16    15    16 1   
    17    15    21 1   
    18    15    22 1   
    19    16    17 1   
    20    16    18 1   
    21    19    20 1   
    22    19    23 1   
    23    19    24 1   
    24    20    21 1   
    25    20    27 1   
    26    20    28 1   
    27    21    25 1   
    28    21    26 1   
@<TRIPOS>SUBSTRUCTURE
     1 X8Z         1 TEMP              0 ****  ****    0 ROOT
