@<TRIPOS>MOLECULE
X90
   52    51     1     0     0
SMALL
No Charge or Current Charge


@<TRIPOS>ATOM
      1 O19         -9.5760     0.5050    -1.1200 o          1 X90      -0.744000
      2 C21         -9.1190     0.2330    -0.0200 c          1 X90       0.717000
      3 O21         -9.5740     0.6680     1.0270 o          1 X90      -0.744000
      4 C22         -7.8650    -0.6590     0.0460 c3         1 X90      -0.204400
      5 C23         -6.5860     0.2110    -0.0210 c3         1 X90      -0.054400
      6 C24         -5.2830    -0.6170     0.0420 c3         1 X90      -0.079400
      7 C25         -4.0090     0.2530    -0.0260 c3         1 X90      -0.075400
      8 C26         -2.7070    -0.5760     0.0370 c3         1 X90      -0.075400
      9 C27         -1.4330     0.2940    -0.0310 c3         1 X90      -0.075400
     10 C28         -0.1310    -0.5350     0.0320 c3         1 X90      -0.074400
     11 C29          1.1430     0.3350    -0.0350 c3         1 X90      -0.074400
     12 C30          3.7190     0.3760    -0.0390 c3         1 X90      -0.074400
     13 C31          5.0210    -0.4520     0.0240 c3         1 X90      -0.074400
     14 C32          6.2950     0.4180    -0.0430 c3         1 X90      -0.074400
     15 C33          7.5970    -0.4110     0.0210 c3         1 X90      -0.074400
     16 C34          8.8710     0.4590    -0.0470 c3         1 X90      -0.075400
     17 C35         10.1730    -0.3700     0.0170 c3         1 X90      -0.075400
     18 C36         11.4450     0.4980    -0.0500 c3         1 X90      -0.088100
     19 C39          2.4450    -0.4940     0.0280 c3         1 X90      -0.074400
     20 H22         -7.8200    -1.1860     1.0080 hc         1 X90       0.014200
     21 H22A        -7.8210    -1.3250    -0.8240 hc         1 X90       0.014200
     22 H23         -6.5960     0.7960    -0.9490 hc         1 X90       0.038200
     23 H23A        -6.5950     0.9300     0.8090 hc         1 X90       0.038200
     24 H24         -5.2710    -1.2010     0.9700 hc         1 X90       0.023700
     25 H24A        -5.2730    -1.3350    -0.7880 hc         1 X90       0.023700
     26 H25         -4.0200     0.8360    -0.9550 hc         1 X90       0.033700
     27 H25A        -4.0190     0.9700     0.8040 hc         1 X90       0.033700
     28 H26         -2.6960    -1.1600     0.9660 hc         1 X90       0.031700
     29 H26A        -2.6970    -1.2940    -0.7930 hc         1 X90       0.031700
     30 H27         -1.4440     0.8770    -0.9600 hc         1 X90       0.035200
     31 H27A        -1.4430     1.0120     0.7990 hc         1 X90       0.035200
     32 H28         -0.1200    -1.1180     0.9620 hc         1 X90       0.034700
     33 H28A        -0.1210    -1.2530    -0.7970 hc         1 X90       0.034700
     34 H29          1.1320     0.9180    -0.9640 hc         1 X90       0.035700
     35 H29A         1.1330     1.0540     0.7940 hc         1 X90       0.035700
     36 H30          3.7090     1.0950     0.7900 hc         1 X90       0.036700
     37 H30A         3.7090     0.9590    -0.9690 hc         1 X90       0.036700
     38 H31          5.0320    -1.0350     0.9540 hc         1 X90       0.036700
     39 H31A         5.0310    -1.1710    -0.8050 hc         1 X90       0.036700
     40 H32          6.2850     1.0000    -0.9730 hc         1 X90       0.036700
     41 H32A         6.2850     1.1360     0.7860 hc         1 X90       0.036700
     42 H33          7.6080    -0.9940     0.9500 hc         1 X90       0.036700
     43 H33A         7.6070    -1.1300    -0.8080 hc         1 X90       0.036700
     44 H34          8.8610     1.0420    -0.9770 hc         1 X90       0.036700
     45 H34A         8.8610     1.1780     0.7820 hc         1 X90       0.036700
     46 H35         10.1880    -0.9520     0.9460 hc         1 X90       0.036200
     47 H35A        10.1880    -1.0880    -0.8120 hc         1 X90       0.036200
     48 H36         11.4760     1.0680    -0.9870 hc         1 X90       0.029700
     49 H36A        11.4770     1.2050     0.7870 hc         1 X90       0.029700
     50 H36B        12.3400    -0.1330    -0.0020 hc         1 X90       0.029700
     51 H39          2.4560    -1.0770     0.9580 hc         1 X90       0.035700
     52 H39A         2.4550    -1.2120    -0.8010 hc         1 X90       0.035700
@<TRIPOS>BOND
     1     1     2 1   
     2     2     3 1   
     3     2     4 1   
     4     4     5 1   
     5     4    20 1   
     6     4    21 1   
     7     5     6 1   
     8     5    22 1   
     9     5    23 1   
    10     6     7 1   
    11     6    24 1   
    12     6    25 1   
    13     7     8 1   
    14     7    26 1   
    15     7    27 1   
    16     8     9 1   
    17     8    28 1   
    18     8    29 1   
    19     9    10 1   
    20     9    30 1   
    21     9    31 1   
    22    10    11 1   
    23    10    32 1   
    24    10    33 1   
    25    11    19 1   
    26    11    34 1   
    27    11    35 1   
    28    12    13 1   
    29    12    19 1   
    30    12    36 1   
    31    12    37 1   
    32    13    14 1   
    33    13    38 1   
    34    13    39 1   
    35    14    15 1   
    36    14    40 1   
    37    14    41 1   
    38    15    16 1   
    39    15    42 1   
    40    15    43 1   
    41    16    17 1   
    42    16    44 1   
    43    16    45 1   
    44    17    18 1   
    45    17    46 1   
    46    17    47 1   
    47    18    48 1   
    48    18    49 1   
    49    18    50 1   
    50    19    51 1   
    51    19    52 1   
@<TRIPOS>SUBSTRUCTURE
     1 X90         1 TEMP              0 ****  ****    0 ROOT
