@<TRIPOS>MOLECULE
X90
   52    51     1     0     0
SMALL
bcc


@<TRIPOS>ATOM
      1 O19        -10.1010    -0.5330    -0.1740 o          1 X90      -0.849300
      2 C21         -9.0750     0.1690    -0.0520 c          1 X90       0.927600
      3 O21         -9.0430     1.4110     0.0600 o          1 X90      -0.849300
      4 C22         -7.7370    -0.5920    -0.0330 c3         1 X90      -0.204400
      5 C23         -6.4790     0.2620    -0.0050 c3         1 X90      -0.054400
      6 C24         -5.2010    -0.5690     0.0010 c3         1 X90      -0.079400
      7 C25         -3.9340     0.2780     0.0140 c3         1 X90      -0.075400
      8 C26         -2.6540    -0.5490     0.0150 c3         1 X90      -0.075400
      9 C27         -1.3890     0.3000     0.0160 c3         1 X90      -0.075400
     10 C28         -0.1080    -0.5250     0.0120 c3         1 X90      -0.074400
     11 C29          1.1550     0.3270     0.0180 c3         1 X90      -0.074400
     12 C30          3.7000     0.3580     0.0080 c3         1 X90      -0.074400
     13 C31          4.9840    -0.4620     0.0000 c3         1 X90      -0.074400
     14 C32          6.2440     0.3950    -0.0010 c3         1 X90      -0.074400
     15 C33          7.5300    -0.4210    -0.0130 c3         1 X90      -0.074400
     16 C34          8.7870     0.4400    -0.0150 c3         1 X90      -0.075400
     17 C35         10.0770    -0.3710    -0.0250 c3         1 X90      -0.075400
     18 C36         11.3230     0.5060    -0.0260 c3         1 X90      -0.088100
     19 C39          2.4380    -0.4960     0.0080 c3         1 X90      -0.074400
     20 H22         -7.7430    -1.2620     0.8360 hc         1 X90       0.014200
     21 H22A        -7.7100    -1.2600    -0.9010 hc         1 X90       0.014200
     22 H23         -6.4670     0.9310    -0.8710 hc         1 X90       0.038200
     23 H23A        -6.4910     0.9110     0.8750 hc         1 X90       0.038200
     24 H24         -5.2010    -1.2340     0.8720 hc         1 X90       0.023700
     25 H24A        -5.1870    -1.2250    -0.8770 hc         1 X90       0.023700
     26 H25         -3.9350     0.9430    -0.8570 hc         1 X90       0.033700
     27 H25A        -3.9440     0.9320     0.8930 hc         1 X90       0.033700
     28 H26         -2.6490    -1.2100     0.8890 hc         1 X90       0.031700
     29 H26A        -2.6470    -1.2070    -0.8620 hc         1 X90       0.031700
     30 H27         -1.3970     0.9610    -0.8580 hc         1 X90       0.035200
     31 H27A        -1.3940     0.9590     0.8920 hc         1 X90       0.035200
     32 H28         -0.1020    -1.1910     0.8820 hc         1 X90       0.034700
     33 H28A        -0.1010    -1.1780    -0.8680 hc         1 X90       0.034700
     34 H29          1.1470     0.9940    -0.8510 hc         1 X90       0.035700
     35 H29A         1.1490     0.9780     0.8990 hc         1 X90       0.035700
     36 H30          3.6940     1.0140     0.8860 hc         1 X90       0.036700
     37 H30A         3.6880     1.0210    -0.8640 hc         1 X90       0.036700
     38 H31          4.9970    -1.1250     0.8730 hc         1 X90       0.036700
     39 H31A         4.9910    -1.1180    -0.8780 hc         1 X90       0.036700
     40 H32          6.2280     1.0610    -0.8710 hc         1 X90       0.036700
     41 H32A         6.2380     1.0480     0.8800 hc         1 X90       0.036700
     42 H33          7.5470    -1.0860     0.8580 hc         1 X90       0.036700
     43 H33A         7.5370    -1.0750    -0.8930 hc         1 X90       0.036700
     44 H34          8.7710     1.1040    -0.8860 hc         1 X90       0.036700
     45 H34A         8.7790     1.0960     0.8640 hc         1 X90       0.036700
     46 H35         10.0950    -1.0330     0.8470 hc         1 X90       0.036200
     47 H35A        10.0870    -1.0250    -0.9020 hc         1 X90       0.036200
     48 H36         11.3460     1.1530    -0.9050 hc         1 X90       0.029700
     49 H36A        11.3510     1.1480     0.8560 hc         1 X90       0.029700
     50 H36B        12.2360    -0.0900    -0.0300 hc         1 X90       0.029700
     51 H39          2.4490    -1.1610     0.8790 hc         1 X90       0.035700
     52 H39A         2.4430    -1.1500    -0.8720 hc         1 X90       0.035700
@<TRIPOS>BOND
     1     1     2 1   
     2     2     3 1   
     3     2     4 1   
     4     4     5 1   
     5     4    20 1   
     6     4    21 1   
     7     5     6 1   
     8     5    22 1   
     9     5    23 1   
    10     6     7 1   
    11     6    24 1   
    12     6    25 1   
    13     7     8 1   
    14     7    26 1   
    15     7    27 1   
    16     8     9 1   
    17     8    28 1   
    18     8    29 1   
    19     9    10 1   
    20     9    30 1   
    21     9    31 1   
    22    10    11 1   
    23    10    32 1   
    24    10    33 1   
    25    11    19 1   
    26    11    34 1   
    27    11    35 1   
    28    12    13 1   
    29    12    19 1   
    30    12    36 1   
    31    12    37 1   
    32    13    14 1   
    33    13    38 1   
    34    13    39 1   
    35    14    15 1   
    36    14    40 1   
    37    14    41 1   
    38    15    16 1   
    39    15    42 1   
    40    15    43 1   
    41    16    17 1   
    42    16    44 1   
    43    16    45 1   
    44    17    18 1   
    45    17    46 1   
    46    17    47 1   
    47    18    48 1   
    48    18    49 1   
    49    18    50 1   
    50    19    51 1   
    51    19    52 1   
@<TRIPOS>SUBSTRUCTURE
     1 X90         1 TEMP              0 ****  ****    0 ROOT
