@<TRIPOS>MOLECULE
X92
   54    56     1     0     0
SMALL
bcc


@<TRIPOS>ATOM
      1 CAK         -4.9950    -1.4820    -1.3100 ca         1 X92      -0.128000
      2 CAI         -6.2340    -1.7070    -1.8980 ca         1 X92      -0.139000
      3 CAG         -7.3990    -1.4730    -1.1780 ca         1 X92      -0.161000
      4 CAH         -7.3140    -1.0160     0.1310 ca         1 X92      -0.139000
      5 CAJ         -6.0730    -0.7930     0.7130 ca         1 X92      -0.128000
      6 CAV         -4.8970    -1.0240     0.0020 ca         1 X92      -0.039300
      7 CAM         -3.5550    -0.7320     0.6140 c3         1 X92      -0.051100
      8 CAP         -3.1130     0.7050     0.3260 c3         1 X92      -0.053400
      9 CAX         -1.7900     1.1070     0.9850 c3         1 X92       0.044500
     10 CAS         -1.5500     2.6040     0.6780 c          1 X92       0.920600
     11 OAE         -1.9460     3.4100     1.5470 o          1 X92      -0.824300
     12 OAB         -1.0310     2.8880    -0.4170 o          1 X92      -0.824300
     13 HAJ         -6.0160    -0.4400     1.7370 ha         1 X92       0.136000
     14 HAH         -8.2170    -0.8340     0.7010 ha         1 X92       0.110500
     15 HAG         -8.3650    -1.6490    -1.6330 ha         1 X92       0.105000
     16 HAI         -6.2890    -2.0660    -2.9170 ha         1 X92       0.110500
     17 HAK         -4.0900    -1.6680    -1.8770 ha         1 X92       0.136000
     18 HAM1        -3.5970    -0.8900     1.6960 hc         1 X92       0.044700
     19 HAM2        -2.8240    -1.4390     0.2150 hc         1 X92       0.044700
     20 HAP1        -3.0270     0.8480    -0.7550 hc         1 X92       0.048700
     21 HAP2        -3.8950     1.3850     0.6770 hc         1 X92       0.048700
     22 HAX         -1.9240     1.0100     2.0740 h1         1 X92      -0.010300
     23 N           -0.7280     0.2510     0.4870 n7         1 X92      -0.764200
     24 CA           0.6140     0.5730     0.9320 c3         1 X92       0.122500
     25 CB           0.7640     0.8020     2.4470 c3         1 X92      -0.126100
     26 C            1.5240    -0.5980     0.5710 c          1 X92       0.698100
     27 O            1.0770    -1.7440     0.5710 o          1 X92      -0.695100
     28 H           -0.9150    -0.7040     0.7680 hn         1 X92       0.323800
     29 HA           0.9260     1.4800     0.4170 h1         1 X92       0.141700
     30 HB1C         0.4410    -0.0780     3.0070 hc         1 X92       0.026700
     31 HB2C         1.8000     1.0150     2.7190 hc         1 X92       0.026700
     32 HB3C         0.1640     1.6500     2.7750 hc         1 X92       0.026700
     33 NBB          2.8260    -0.3530     0.3780 n          1 X92      -0.432800
     34 CBA          3.7800    -1.4380     0.2720 c5         1 X92       0.123700
     35 CAO          3.9410    -2.0710    -1.1110 c5         1 X92      -0.099400
     36 CAL          5.3570    -2.6390    -1.0530 c5         1 X92      -0.077400
     37 CAN          6.1720    -1.6110    -0.2410 c5         1 X92      -0.069400
     38 CAY          5.1370    -0.7800     0.5410 c5         1 X92      -0.093700
     39 CAQ          4.9330     0.6460     0.0240 c5         1 X92      -0.066400
     40 CAZ          3.4340     0.9570     0.2000 c5         1 X92      -0.033300
     41 CAT          2.9390     1.7390    -1.0370 c          1 X92       0.927600
     42 OAF          3.2240     2.9530    -1.0240 o          1 X92      -0.815800
     43 OAC          2.3760     1.1000    -1.9410 o          1 X92      -0.815800
     44 HBA          3.5500    -2.2110     1.0090 h1         1 X92       0.043700
     45 HAZ          3.2840     1.5680     1.0960 h1         1 X92       0.045700
     46 HAO1         3.1810    -2.8260    -1.3150 hc         1 X92       0.070700
     47 HAO2         3.8480    -1.2970    -1.8760 hc         1 X92       0.070700
     48 HAY          5.3530    -0.7610     1.6110 hc         1 X92       0.034700
     49 HAL1         5.3410    -3.5980    -0.5280 hc         1 X92       0.017200
     50 HAL2         5.7810    -2.8280    -2.0400 hc         1 X92       0.017200
     51 HAN1         6.8840    -2.1050     0.4220 hc         1 X92       0.021700
     52 HAN2         6.7590    -0.9670    -0.8990 hc         1 X92       0.021700
     53 HAQ1         5.5550     1.3760     0.5400 hc         1 X92       0.038700
     54 HAQ2         5.2060     0.6920    -1.0340 hc         1 X92       0.038700
@<TRIPOS>BOND
     1     1     2 ar  
     2     1     6 ar  
     3     1    17 1   
     4     2     3 ar  
     5     2    16 1   
     6     3     4 ar  
     7     3    15 1   
     8     4     5 ar  
     9     4    14 1   
    10     5     6 ar  
    11     5    13 1   
    12     6     7 1   
    13     7     8 1   
    14     7    18 1   
    15     7    19 1   
    16     8     9 1   
    17     8    20 1   
    18     8    21 1   
    19     9    10 1   
    20     9    22 1   
    21     9    23 1   
    22    10    11 1   
    23    10    12 1   
    24    23    24 1   
    25    23    28 1   
    26    24    25 1   
    27    24    26 1   
    28    24    29 1   
    29    25    30 1   
    30    25    31 1   
    31    25    32 1   
    32    26    27 2   
    33    26    33 1   
    34    33    34 1   
    35    33    40 1   
    36    34    35 1   
    37    34    38 1   
    38    34    44 1   
    39    35    36 1   
    40    35    46 1   
    41    35    47 1   
    42    36    37 1   
    43    36    49 1   
    44    36    50 1   
    45    37    38 1   
    46    37    51 1   
    47    37    52 1   
    48    38    39 1   
    49    38    48 1   
    50    39    40 1   
    51    39    53 1   
    52    39    54 1   
    53    40    41 1   
    54    40    45 1   
    55    41    42 1   
    56    41    43 1   
@<TRIPOS>SUBSTRUCTURE
     1 X92         1 TEMP              0 ****  ****    0 ROOT
