@<TRIPOS>MOLECULE
X92
   54    56     1     0     0
SMALL
No Charge or Current Charge


@<TRIPOS>ATOM
      1 CAK         -5.3320    -1.7370    -0.9700 ca         1 X92      -0.110000
      2 CAI         -6.6110    -2.0830    -1.4410 ca         1 X92      -0.121000
      3 CAG         -7.7560    -1.6120    -0.7760 ca         1 X92      -0.143000
      4 CAH         -7.6220    -0.7950     0.3580 ca         1 X92      -0.121000
      5 CAJ         -6.3430    -0.4490     0.8290 ca         1 X92      -0.110000
      6 CAV         -5.1910    -0.9190     0.1690 ca         1 X92      -0.039300
      7 CAM         -3.8050    -0.5420     0.6750 c3         1 X92      -0.051100
      8 CAP         -3.2430     0.7070    -0.0460 c3         1 X92      -0.053400
      9 CAX         -1.8700     1.1930     0.4950 c3         1 X92       0.044500
     10 CAS         -1.5270     2.6470    -0.0400 c          1 X92       0.710000
     11 OAE         -1.1290     3.4790     0.7660 o          1 X92      -0.719000
     12 OAB         -1.6990     2.9050    -1.2260 o          1 X92      -0.719000
     13 HAJ         -6.2480     0.1860     1.7070 ha         1 X92       0.118000
     14 HAH         -8.5080    -0.4290     0.8720 ha         1 X92       0.092500
     15 HAG         -8.7450    -1.8800    -1.1410 ha         1 X92       0.087000
     16 HAI         -6.7130    -2.7140    -2.3200 ha         1 X92       0.092500
     17 HAK         -4.4500    -2.1020    -1.4910 ha         1 X92       0.118000
     18 HAM1        -3.8390    -0.3480     1.7540 hc         1 X92       0.044700
     19 HAM2        -3.1190    -1.3870     0.5370 hc         1 X92       0.044700
     20 HAP1        -3.1660     0.5050    -1.1210 hc         1 X92       0.048700
     21 HAP2        -3.9680     1.5230     0.0680 hc         1 X92       0.048700
     22 HAX         -1.9910     1.2830     1.5820 h1         1 X92      -0.010300
     23 N           -0.8260     0.1450     0.2120 n7         1 X92      -0.819400
     24 CA           0.5760     0.3720     0.7260 c3         1 X92       0.122500
     25 CB           0.5600     0.4650     2.2750 c3         1 X92      -0.126100
     26 C            1.6030    -0.7400     0.2650 c          1 X92       0.631100
     27 O            1.2090    -1.8620    -0.0630 o          1 X92      -0.695100
     28 H           -1.1510    -0.7590     0.5710 hn         1 X92       0.379000
     29 HA           0.9530     1.3220     0.3360 h1         1 X92       0.141700
     30 HB1C         0.0890    -0.4240     2.7120 hc         1 X92       0.026700
     31 HB2C         1.5760     0.5340     2.6760 hc         1 X92       0.026700
     32 HB3C         0.0140     1.3520     2.6170 hc         1 X92       0.026700
     33 NBB          3.0000    -0.4740     0.2760 n          1 X92      -0.365800
     34 CBA          3.9870    -1.5680     0.1540 c5         1 X92       0.123700
     35 CAO          4.3220    -1.7650    -1.3500 c5         1 X92      -0.099400
     36 CAL          5.7110    -2.4400    -1.2160 c5         1 X92      -0.077400
     37 CAN          6.4410    -1.5690    -0.1430 c5         1 X92      -0.069400
     38 CAY          5.2860    -0.9420     0.7160 c5         1 X92      -0.093700
     39 CAQ          5.1540     0.5700     0.3540 c5         1 X92      -0.066400
     40 CAZ          3.6370     0.8520     0.5910 c5         1 X92      -0.033300
     41 CAT          3.2410     2.0670    -0.3160 c          1 X92       0.717000
     42 OAF          3.2080     3.1810     0.1860 o          1 X92      -0.710500
     43 OAC          2.8800     1.8690    -1.4680 o          1 X92      -0.710500
     44 HBA          3.7000    -2.4960     0.6670 h1         1 X92       0.043700
     45 HAZ          3.4590     1.1210     1.6390 h1         1 X92       0.045700
     46 HAO1         3.5920    -2.4080    -1.8540 hc         1 X92       0.070700
     47 HAO2         4.3740    -0.8290    -1.9160 hc         1 X92       0.070700
     48 HAY          5.3970    -1.1040     1.7940 hc         1 X92       0.034700
     49 HAL1         5.6080    -3.4770    -0.8730 hc         1 X92       0.017200
     50 HAL2         6.2540    -2.4690    -2.1670 hc         1 X92       0.017200
     51 HAN1         7.1020    -2.1890     0.4720 hc         1 X92       0.021700
     52 HAN2         7.0810    -0.8110    -0.6090 hc         1 X92       0.021700
     53 HAQ1         5.7920     1.2040     0.9800 hc         1 X92       0.038700
     54 HAQ2         5.4330     0.7800    -0.6850 hc         1 X92       0.038700
@<TRIPOS>BOND
     1     1     2 ar  
     2     1     6 ar  
     3     1    17 1   
     4     2     3 ar  
     5     2    16 1   
     6     3     4 ar  
     7     3    15 1   
     8     4     5 ar  
     9     4    14 1   
    10     5     6 ar  
    11     5    13 1   
    12     6     7 1   
    13     7     8 1   
    14     7    18 1   
    15     7    19 1   
    16     8     9 1   
    17     8    20 1   
    18     8    21 1   
    19     9    10 1   
    20     9    22 1   
    21     9    23 1   
    22    10    11 1   
    23    10    12 1   
    24    23    24 1   
    25    23    28 1   
    26    24    25 1   
    27    24    26 1   
    28    24    29 1   
    29    25    30 1   
    30    25    31 1   
    31    25    32 1   
    32    26    27 2   
    33    26    33 1   
    34    33    34 1   
    35    33    40 1   
    36    34    35 1   
    37    34    38 1   
    38    34    44 1   
    39    35    36 1   
    40    35    46 1   
    41    35    47 1   
    42    36    37 1   
    43    36    49 1   
    44    36    50 1   
    45    37    38 1   
    46    37    51 1   
    47    37    52 1   
    48    38    39 1   
    49    38    48 1   
    50    39    40 1   
    51    39    53 1   
    52    39    54 1   
    53    40    41 1   
    54    40    45 1   
    55    41    42 1   
    56    41    43 1   
@<TRIPOS>SUBSTRUCTURE
     1 X92         1 TEMP              0 ****  ****    0 ROOT
