@<TRIPOS>MOLECULE
X93
   57    59     1     0     0
SMALL
No Charge or Current Charge


@<TRIPOS>ATOM
      1 CAY         -2.0880    -1.8020    -0.5460 c3         1 X93       0.040500
      2 CAQ         -3.2910    -0.8260    -0.4860 c3         1 X93      -0.043400
      3 CAN         -3.0900     0.3700     0.4750 c3         1 X93      -0.056100
      4 CAW         -4.3250     1.2580     0.5520 ca         1 X93      -0.031300
      5 CAJ         -5.2970     1.0420     1.5490 ca         1 X93      -0.104500
      6 CAK         -4.5100     2.3000    -0.3790 ca         1 X93      -0.104500
      7 CAH         -6.4380     1.8600     1.6170 ca         1 X93      -0.131000
      8 CAI         -5.6520     3.1170    -0.3110 ca         1 X93      -0.131000
      9 CAG         -6.6160     2.8980     0.6870 ca         1 X93      -0.150000
     10 CAT         -2.5080    -3.1160    -1.3250 c          1 X93       0.706000
     11 OAB         -2.4580    -3.1110    -2.5500 o          1 X93      -0.740500
     12 OAE         -2.8060    -4.1110    -0.6760 o          1 X93      -0.740500
     13 N           -0.8890    -1.0880    -1.1110 n7         1 X93      -0.861400
     14 CA           0.4750    -1.4870    -0.6170 c3         1 X93       0.121500
     15 C            1.6290    -0.5610    -1.1690 c          1 X93       0.623100
     16 O            1.6670    -0.2410    -2.3580 o          1 X93      -0.663100
     17 CB           0.7700    -2.9680    -0.9610 c3         1 X93      -0.123100
     18 NBC          2.5780    -0.0390    -0.2540 n          1 X93      -0.368800
     19 CBB          3.6660     0.8610    -0.7030 c5         1 X93       0.136700
     20 CAP          3.2600     2.2710    -1.2010 c6         1 X93      -0.080400
     21 CAM          4.5420     3.1170    -1.4580 c6         1 X93      -0.072400
     22 CAL          5.4730     3.1860    -0.2090 c6         1 X93      -0.072400
     23 CAO          5.7950     1.7780     0.3680 c6         1 X93      -0.057400
     24 CAZ          4.4710     1.0210     0.6060 c5         1 X93      -0.098700
     25 CAR          4.5160    -0.4380     1.1000 c5         1 X93      -0.065400
     26 CBA          3.0060    -0.8270     0.9570 c5         1 X93      -0.031300
     27 CAU          2.2510    -0.4950     2.2950 c          1 X93       0.712000
     28 OAF          1.6150     0.5450     2.3980 o          1 X93      -0.722000
     29 OAC          2.2320    -1.3450     3.1750 o          1 X93      -0.722000
     30 HAY         -1.8700    -2.0980     0.4900 h1         1 X93       0.010700
     31 HAQ1        -3.5130    -0.4530    -1.4940 hc         1 X93       0.037700
     32 HAQ2        -4.1770    -1.3840    -0.1580 hc         1 X93       0.037700
     33 HAN1        -2.8350    -0.0090     1.4720 hc         1 X93       0.066700
     34 HAN2        -2.2270     0.9620     0.1460 hc         1 X93       0.066700
     35 HAJ         -5.1680     0.2380     2.2710 ha         1 X93       0.135000
     36 HAK         -3.7680     2.4730    -1.1550 ha         1 X93       0.135000
     37 HAH         -7.1850     1.6880     2.3890 ha         1 X93       0.086500
     38 HAI         -5.7890     3.9200    -1.0320 ha         1 X93       0.086500
     39 HAG         -7.4990     3.5300     0.7390 ha         1 X93       0.078000
     40 H           -0.9100    -1.1910    -2.1370 hn         1 X93       0.456000
     41 HA           0.4900    -1.3900     0.4750 h1         1 X93       0.076700
     42 HB1C         0.6620    -3.1490    -2.0370 hc         1 X93       0.027033
     43 HB2C         1.7940    -3.2340    -0.6770 hc         1 X93       0.027033
     44 HB3C         0.0950    -3.6420    -0.4210 hc         1 X93       0.027033
     45 HBB          4.2680     0.3680    -1.4790 h1         1 X93       0.016700
     46 HBA          2.9140    -1.9070     0.7880 h1         1 X93       0.047700
     47 HAP1         2.6730     2.1980    -2.1250 hc         1 X93       0.068200
     48 HAP2         2.6200     2.7650    -0.4570 hc         1 X93       0.068200
     49 HAZ          3.9220     1.6380     1.3290 hc         1 X93       0.082700
     50 HAM1         5.0990     2.6840    -2.3000 hc         1 X93       0.019700
     51 HAM2         4.2600     4.1330    -1.7650 hc         1 X93       0.019700
     52 HAL1         6.4070     3.7020    -0.4700 hc         1 X93       0.021700
     53 HAL2         4.9910     3.7960     0.5670 hc         1 X93       0.021700
     54 HAO1         6.4290     1.2180    -0.3340 hc         1 X93       0.023200
     55 HAO2         6.3570     1.8700     1.3070 hc         1 X93       0.023200
     56 HAR1         5.1520    -1.0580     0.4570 hc         1 X93       0.032200
     57 HAR2         4.8910    -0.5330     2.1250 hc         1 X93       0.032200
@<TRIPOS>BOND
     1     1     2 1   
     2     1    10 1   
     3     1    13 1   
     4     1    30 1   
     5     2     3 1   
     6     2    31 1   
     7     2    32 1   
     8     3     4 1   
     9     3    33 1   
    10     3    34 1   
    11     4     5 ar  
    12     4     6 ar  
    13     5     7 ar  
    14     5    35 1   
    15     6     8 ar  
    16     6    36 1   
    17     7     9 ar  
    18     7    37 1   
    19     8     9 ar  
    20     8    38 1   
    21     9    39 1   
    22    10    11 1   
    23    10    12 1   
    24    13    14 1   
    25    13    40 1   
    26    14    15 1   
    27    14    17 1   
    28    14    41 1   
    29    15    16 2   
    30    15    18 1   
    31    17    42 1   
    32    17    43 1   
    33    17    44 1   
    34    18    19 1   
    35    18    26 1   
    36    19    20 1   
    37    19    24 1   
    38    19    45 1   
    39    20    21 1   
    40    20    47 1   
    41    20    48 1   
    42    21    22 1   
    43    21    50 1   
    44    21    51 1   
    45    22    23 1   
    46    22    52 1   
    47    22    53 1   
    48    23    24 1   
    49    23    54 1   
    50    23    55 1   
    51    24    25 1   
    52    24    49 1   
    53    25    26 1   
    54    25    56 1   
    55    25    57 1   
    56    26    27 1   
    57    26    46 1   
    58    27    28 1   
    59    27    29 1   
@<TRIPOS>SUBSTRUCTURE
     1 X93         1 TEMP              0 ****  ****    0 ROOT
