@<TRIPOS>MOLECULE
X93
   57    59     1     0     0
SMALL
abcg2


@<TRIPOS>ATOM
      1 CAY         -2.0050    -2.0520    -1.1780 c3         1 X93       0.040500
      2 CAQ         -3.0360    -1.0160    -0.7240 c3         1 X93      -0.043400
      3 CAN         -2.6270    -0.2900     0.5570 c3         1 X93      -0.056100
      4 CAW         -3.6030     0.7750     0.9750 ca         1 X93      -0.031300
      5 CAJ         -4.9340     0.4620     1.2590 ca         1 X93      -0.104500
      6 CAK         -3.2030     2.1060     1.0790 ca         1 X93      -0.104500
      7 CAH         -5.8380     1.4490     1.6250 ca         1 X93      -0.131000
      8 CAI         -4.1060     3.0980     1.4440 ca         1 X93      -0.131000
      9 CAG         -5.4280     2.7740     1.7160 ca         1 X93      -0.150000
     10 CAT         -2.5800    -2.9390    -2.3160 c          1 X93       0.706000
     11 OAB         -1.9000    -3.0540    -3.3560 o          1 X93      -0.740500
     12 OAE         -3.6790    -3.4810    -2.0880 o          1 X93      -0.740500
     13 N           -0.7620    -1.4170    -1.5850 n7         1 X93      -0.861400
     14 CA           0.3630    -1.5550    -0.6830 c3         1 X93       0.121500
     15 C            1.4910    -0.6700    -1.2100 c          1 X93       0.623100
     16 O            1.7370    -0.6690    -2.4150 o          1 X93      -0.663100
     17 CB           0.9060    -2.9830    -0.5430 c3         1 X93      -0.123100
     18 NBC          2.2100     0.0380    -0.3330 n          1 X93      -0.368800
     19 CBB          3.3730     0.8280    -0.7320 c5         1 X93       0.136700
     20 CAP          3.2250     1.9220    -1.7770 c6         1 X93      -0.080400
     21 CAM          4.6010     2.5780    -1.9540 c6         1 X93      -0.072400
     22 CAL          5.2220     3.0730    -0.6460 c6         1 X93      -0.072400
     23 CAO          5.2400     1.9940     0.4410 c6         1 X93      -0.057400
     24 CAZ          3.8330     1.4490     0.5820 c5         1 X93      -0.098700
     25 CAR          3.4940     0.3720     1.5940 c5         1 X93      -0.065400
     26 CBA          2.0920    -0.0440     1.1220 c5         1 X93      -0.031300
     27 CAU          1.0050     0.8970     1.7040 c          1 X93       0.712000
     28 OAF          0.4410     1.6810     0.9220 o          1 X93      -0.722000
     29 OAC          0.8230     0.7770     2.9310 o          1 X93      -0.722000
     30 HAY         -1.8430    -2.7390    -0.3320 h1         1 X93       0.010700
     31 HAQ1        -3.1830    -0.2880    -1.5290 hc         1 X93       0.037700
     32 HAQ2        -3.9940    -1.5130    -0.5650 hc         1 X93       0.037700
     33 HAN1        -2.5290    -1.0320     1.3590 hc         1 X93       0.066700
     34 HAN2        -1.6440     0.1640     0.4350 hc         1 X93       0.066700
     35 HAJ         -5.2680    -0.5670     1.1950 ha         1 X93       0.135000
     36 HAK         -2.1660     2.3590     0.8880 ha         1 X93       0.135000
     37 HAH         -6.8650     1.1840     1.8420 ha         1 X93       0.086500
     38 HAI         -3.7740     4.1270     1.5170 ha         1 X93       0.086500
     39 HAG         -6.1330     3.5460     1.9990 ha         1 X93       0.078000
     40 H           -0.5210    -1.8000    -2.4930 hn         1 X93       0.456000
     41 HA           0.0370    -1.2150     0.2990 h1         1 X93       0.076700
     42 HB1C         1.2700    -3.3530    -1.5020 hc         1 X93       0.027033
     43 HB2C         1.7290    -3.0370     0.1740 hc         1 X93       0.027033
     44 HB3C         0.1260    -3.6610    -0.1940 hc         1 X93       0.027033
     45 HBB          4.1530     0.1360    -1.0880 h1         1 X93       0.016700
     46 HBA          1.8810    -1.0680     1.4370 h1         1 X93       0.047700
     47 HAP1         2.8820     1.5290    -2.7330 hc         1 X93       0.068200
     48 HAP2         2.4850     2.6540    -1.4380 hc         1 X93       0.068200
     49 HAZ          3.1760     2.3040     0.7900 hc         1 X93       0.082700
     50 HAM1         5.2760     1.8470    -2.4140 hc         1 X93       0.019700
     51 HAM2         4.5260     3.4060    -2.6620 hc         1 X93       0.019700
     52 HAL1         6.2330     3.4410    -0.8360 hc         1 X93       0.021700
     53 HAL2         4.6460     3.9280    -0.2780 hc         1 X93       0.021700
     54 HAO1         5.9320     1.1880     0.1700 hc         1 X93       0.023200
     55 HAO2         5.5940     2.4140     1.3850 hc         1 X93       0.023200
     56 HAR1         4.1910    -0.4690     1.5190 hc         1 X93       0.032200
     57 HAR2         3.4910     0.7160     2.6270 hc         1 X93       0.032200
@<TRIPOS>BOND
     1     1     2 1   
     2     1    10 1   
     3     1    13 1   
     4     1    30 1   
     5     2     3 1   
     6     2    31 1   
     7     2    32 1   
     8     3     4 1   
     9     3    33 1   
    10     3    34 1   
    11     4     5 ar  
    12     4     6 ar  
    13     5     7 ar  
    14     5    35 1   
    15     6     8 ar  
    16     6    36 1   
    17     7     9 ar  
    18     7    37 1   
    19     8     9 ar  
    20     8    38 1   
    21     9    39 1   
    22    10    11 1   
    23    10    12 1   
    24    13    14 1   
    25    13    40 1   
    26    14    15 1   
    27    14    17 1   
    28    14    41 1   
    29    15    16 2   
    30    15    18 1   
    31    17    42 1   
    32    17    43 1   
    33    17    44 1   
    34    18    19 1   
    35    18    26 1   
    36    19    20 1   
    37    19    24 1   
    38    19    45 1   
    39    20    21 1   
    40    20    47 1   
    41    20    48 1   
    42    21    22 1   
    43    21    50 1   
    44    21    51 1   
    45    22    23 1   
    46    22    52 1   
    47    22    53 1   
    48    23    24 1   
    49    23    54 1   
    50    23    55 1   
    51    24    25 1   
    52    24    49 1   
    53    25    26 1   
    54    25    56 1   
    55    25    57 1   
    56    26    27 1   
    57    26    46 1   
    58    27    28 1   
    59    27    29 1   
@<TRIPOS>SUBSTRUCTURE
     1 X93         1 TEMP              0 ****  ****    0 ROOT
