@<TRIPOS>MOLECULE
X94
   50    51     1     0     0
SMALL
bcc


@<TRIPOS>ATOM
      1 CAA         -3.0810     3.0310     1.8060 c3         1 X94      -0.072100
      2 CAH         -2.7330     1.6610     1.2390 c3         1 X94      -0.089400
      3 CAK         -3.6860     1.2270     0.1340 c3         1 X94      -0.044400
      4 CAU         -3.3140    -0.1190    -0.4940 c3         1 X94       0.039500
      5 CAP         -4.4120    -0.5840    -1.4860 c          1 X94       0.912600
      6 OAF         -5.5720    -0.6450    -1.0320 o          1 X94      -0.849800
      7 OAC         -4.0580    -0.8630    -2.6500 o          1 X94      -0.849800
      8 N           -2.0070    -0.0530    -1.1320 n7         1 X94      -0.802200
      9 CA          -0.9660    -0.8590    -0.5240 c3         1 X94       0.118500
     10 CB          -1.1960    -2.3720    -0.6450 c3         1 X94      -0.122100
     11 C            0.3500    -0.5170    -1.2200 c          1 X94       0.683100
     12 O            0.3580    -0.3990    -2.4440 o          1 X94      -0.666100
     13 NAX          1.4640    -0.3970    -0.4800 n          1 X94      -0.434800
     14 CAW          2.7730    -0.1990    -1.1200 c5         1 X94       0.129700
     15 CAL          4.1520     0.9510     0.7640 c6         1 X94      -0.070400
     16 CAI          4.3430     2.1490    -0.1530 c6         1 X94      -0.062400
     17 CAJ          3.1080     2.3250    -1.0250 c6         1 X94      -0.079400
     18 CAM          2.9310     1.1010    -1.9070 c6         1 X94      -0.066400
     19 CAT          3.7760    -0.3500     0.0380 c5         1 X94      -0.063700
     20 CAN          3.0460    -1.3060     0.9780 c5         1 X94      -0.075400
     21 CAV          1.5810    -0.8570     0.9000 c5         1 X94      -0.029300
     22 CAQ          1.1740     0.1760     1.9800 c          1 X94       0.924600
     23 OAD          1.2740    -0.2480     3.1510 o          1 X94      -0.827300
     24 OAG          0.7740     1.2930     1.6160 o          1 X94      -0.827300
     25 HAA1        -3.0270     3.8010     1.0340 hc         1 X94       0.006700
     26 HAA2        -4.0940     3.0480     2.2140 hc         1 X94       0.006700
     27 HAA3        -2.3990     3.3210     2.6060 hc         1 X94       0.006700
     28 HAH1        -1.7070     1.6670     0.8690 hc         1 X94       0.059200
     29 HAH2        -2.7540     0.9180     2.0440 hc         1 X94       0.059200
     30 HAK1        -4.7020     1.1680     0.5330 hc         1 X94       0.027200
     31 HAK2        -3.7040     1.9910    -0.6530 hc         1 X94       0.027200
     32 HAU         -3.3110    -0.8620     0.3190 h1         1 X94       0.017700
     33 H           -2.1390    -0.3510    -2.0930 hn         1 X94       0.394800
     34 HA          -0.9180    -0.5870     0.5300 h1         1 X94       0.086700
     35 HB1C        -0.4090    -2.9550    -0.1640 hc         1 X94       0.028033
     36 HB2C        -2.1410    -2.6560    -0.1800 hc         1 X94       0.028033
     37 HB3C        -1.2370    -2.6670    -1.6950 hc         1 X94       0.028033
     38 HAW          2.9310    -1.0300    -1.8190 h1         1 X94       0.020700
     39 HAV          0.9440    -1.7310     1.0560 h1         1 X94       0.042700
     40 HAM1         3.8260     0.9870    -2.5300 hc         1 X94       0.037200
     41 HAM2         2.1000     1.2240    -2.5980 hc         1 X94       0.037200
     42 HAT          4.6910    -0.8000    -0.3580 hc         1 X94       0.014700
     43 HAJ1         2.2270     2.4520    -0.3890 hc         1 X94       0.055700
     44 HAJ2         3.1930     3.2200    -1.6460 hc         1 X94       0.055700
     45 HAI1         4.5320     3.0430     0.4460 hc         1 X94       0.009700
     46 HAI2         5.2220     2.0090    -0.7930 hc         1 X94       0.009700
     47 HAL1         5.0570     0.7630     1.3490 hc         1 X94       0.050200
     48 HAL2         3.3750     1.2090     1.4850 hc         1 X94       0.050200
     49 HAN1         3.1370    -2.3340     0.6180 hc         1 X94       0.033700
     50 HAN2         3.4250    -1.2830     1.9990 hc         1 X94       0.033700
@<TRIPOS>BOND
     1     1     2 1   
     2     1    25 1   
     3     1    26 1   
     4     1    27 1   
     5     2     3 1   
     6     2    28 1   
     7     2    29 1   
     8     3     4 1   
     9     3    30 1   
    10     3    31 1   
    11     4     5 1   
    12     4     8 1   
    13     4    32 1   
    14     5     6 1   
    15     5     7 1   
    16     8     9 1   
    17     8    33 1   
    18     9    10 1   
    19     9    11 1   
    20     9    34 1   
    21    10    35 1   
    22    10    36 1   
    23    10    37 1   
    24    11    12 2   
    25    11    13 1   
    26    13    14 1   
    27    13    21 1   
    28    14    18 1   
    29    14    19 1   
    30    14    38 1   
    31    15    16 1   
    32    15    19 1   
    33    15    47 1   
    34    15    48 1   
    35    16    17 1   
    36    16    45 1   
    37    16    46 1   
    38    17    18 1   
    39    17    43 1   
    40    17    44 1   
    41    18    40 1   
    42    18    41 1   
    43    19    20 1   
    44    19    42 1   
    45    20    21 1   
    46    20    49 1   
    47    20    50 1   
    48    21    22 1   
    49    21    39 1   
    50    22    23 1   
    51    22    24 1   
@<TRIPOS>SUBSTRUCTURE
     1 X94         1 TEMP              0 ****  ****    0 ROOT
