@<TRIPOS>MOLECULE
X94
   50    51     1     0     0
SMALL
No Charge or Current Charge


@<TRIPOS>ATOM
      1 CAA         -3.8270     3.7690     0.9950 c3         1 X94      -0.072100
      2 CAH         -3.1360     2.3980     0.8590 c3         1 X94      -0.089400
      3 CAK         -3.9660     1.3780     0.0420 c3         1 X94      -0.044400
      4 CAU         -3.3210    -0.0290    -0.0630 c3         1 X94       0.039500
      5 CAP         -4.3730    -1.0550    -0.6530 c          1 X94       0.702000
      6 OAF         -4.9610    -1.8000     0.1210 o          1 X94      -0.744500
      7 OAC         -4.5150    -1.1140    -1.8700 o          1 X94      -0.744500
      8 N           -2.0290     0.0650    -0.8320 n7         1 X94      -0.857400
      9 CA          -0.9120    -0.8750    -0.4670 c3         1 X94       0.118500
     10 CB          -1.3350    -2.3440    -0.7100 c3         1 X94      -0.122100
     11 C            0.4330    -0.5630    -1.2350 c          1 X94       0.616100
     12 O            0.4210    -0.3610    -2.4500 o          1 X94      -0.666100
     13 NAX          1.6440    -0.4580    -0.4960 n          1 X94      -0.367800
     14 CAW          2.9210    -0.1310    -1.1900 c5         1 X94       0.129700
     15 CAL          4.3010     0.7590     0.8940 c6         1 X94      -0.070400
     16 CAI          4.4690     2.1050     0.1620 c6         1 X94      -0.062400
     17 CAJ          3.2170     2.4040    -0.6920 c6         1 X94      -0.079400
     18 CAM          3.0240     1.3140    -1.7710 c6         1 X94      -0.066400
     19 CAT          4.0010    -0.4120    -0.0930 c5         1 X94      -0.063700
     20 CAN          3.4080    -1.6770     0.5760 c5         1 X94      -0.075400
     21 CAV          1.8810    -1.3460     0.6930 c5         1 X94      -0.029300
     22 CAQ          1.5310    -0.7510     2.1090 c          1 X94       0.714000
     23 OAD          1.7360    -1.4380     3.1000 o          1 X94      -0.722000
     24 OAG          0.9940     0.3450     2.1960 o          1 X94      -0.722000
     25 HAA1        -3.9980     4.2160     0.0080 hc         1 X94       0.006700
     26 HAA2        -4.7940     3.6680     1.5030 hc         1 X94       0.006700
     27 HAA3        -3.2020     4.4550     1.5790 hc         1 X94       0.006700
     28 HAH1        -2.1580     2.5420     0.3850 hc         1 X94       0.059200
     29 HAH2        -2.9480     1.9930     1.8610 hc         1 X94       0.059200
     30 HAK1        -4.9500     1.2730     0.5180 hc         1 X94       0.027200
     31 HAK2        -4.1470     1.7740    -0.9650 hc         1 X94       0.027200
     32 HAU         -3.1010    -0.3520     0.9650 h1         1 X94       0.017700
     33 H           -2.2440    -0.0510    -1.8330 hn         1 X94       0.450000
     34 HA          -0.6970    -0.7650     0.6020 h1         1 X94       0.086700
     35 HB1C        -0.4950    -3.0240    -0.5300 hc         1 X94       0.028033
     36 HB2C        -2.1460    -2.6410    -0.0350 hc         1 X94       0.028033
     37 HB3C        -1.6680    -2.4900    -1.7450 hc         1 X94       0.028033
     38 HAW          3.0540    -0.8330    -2.0250 h1         1 X94       0.020700
     39 HAV          1.3070    -2.2760     0.6050 h1         1 X94       0.042700
     40 HAM1         3.8800     1.3480    -2.4590 hc         1 X94       0.037200
     41 HAM2         2.1460     1.5530    -2.3830 hc         1 X94       0.037200
     42 HAT          4.9660    -0.6350    -0.5640 hc         1 X94       0.014700
     43 HAJ1         2.3260     2.4600    -0.0500 hc         1 X94       0.055700
     44 HAJ2         3.3200     3.3870    -1.1720 hc         1 X94       0.055700
     45 HAI1         4.6240     2.9100     0.8930 hc         1 X94       0.009700
     46 HAI2         5.3650     2.0800    -0.4750 hc         1 X94       0.009700
     47 HAL1         5.2100     0.5320     1.4680 hc         1 X94       0.050200
     48 HAL2         3.5030     0.8700     1.6340 hc         1 X94       0.050200
     49 HAN1         3.5560    -2.5510    -0.0690 hc         1 X94       0.033700
     50 HAN2         3.8800    -1.9140     1.5360 hc         1 X94       0.033700
@<TRIPOS>BOND
     1     1     2 1   
     2     1    25 1   
     3     1    26 1   
     4     1    27 1   
     5     2     3 1   
     6     2    28 1   
     7     2    29 1   
     8     3     4 1   
     9     3    30 1   
    10     3    31 1   
    11     4     5 1   
    12     4     8 1   
    13     4    32 1   
    14     5     6 1   
    15     5     7 1   
    16     8     9 1   
    17     8    33 1   
    18     9    10 1   
    19     9    11 1   
    20     9    34 1   
    21    10    35 1   
    22    10    36 1   
    23    10    37 1   
    24    11    12 2   
    25    11    13 1   
    26    13    14 1   
    27    13    21 1   
    28    14    18 1   
    29    14    19 1   
    30    14    38 1   
    31    15    16 1   
    32    15    19 1   
    33    15    47 1   
    34    15    48 1   
    35    16    17 1   
    36    16    45 1   
    37    16    46 1   
    38    17    18 1   
    39    17    43 1   
    40    17    44 1   
    41    18    40 1   
    42    18    41 1   
    43    19    20 1   
    44    19    42 1   
    45    20    21 1   
    46    20    49 1   
    47    20    50 1   
    48    21    22 1   
    49    21    39 1   
    50    22    23 1   
    51    22    24 1   
@<TRIPOS>SUBSTRUCTURE
     1 X94         1 TEMP              0 ****  ****    0 ROOT
