@<TRIPOS>MOLECULE
X95
   68    70     1     0     0
SMALL
abcg2


@<TRIPOS>ATOM
      1 C            3.3820    -2.5040    -1.1110 c          1 X95       0.699000
      2 OXT          4.1100    -2.3560    -2.1120 o          1 X95      -0.742000
      3 CA           2.5700    -1.2600    -0.6670 c3         1 X95       0.018500
      4 CB           3.5300    -0.1590    -0.2040 c3         1 X95      -0.031400
      5 CAG          5.5870     4.2030     1.3300 ca         1 X95      -0.149000
      6 CAH          5.2010     4.1150    -0.0020 ca         1 X95      -0.126500
      7 CAI          5.0590     3.3110     2.2550 ca         1 X95      -0.126500
      8 CAL          4.2950     3.1400    -0.4010 ca         1 X95      -0.108000
      9 CAT          2.8110     1.1600     0.0730 c3         1 X95      -0.065100
     10 CBD          3.7580     2.2380     0.5150 ca         1 X95      -0.025300
     11 CAM          4.1540     2.3400     1.8490 ca         1 X95      -0.108000
     12 O            3.2610    -3.5400    -0.4250 o          1 X95      -0.742000
     13 NAA         -1.6500    -7.2020     2.2750 n8         1 X95      -0.998200
     14 N            1.5890    -1.5760     0.3620 n7         1 X95      -0.861400
     15 CAQ         -0.8450    -6.3920     1.3720 c3         1 X95       0.140800
     16 CAR         -1.1430    -4.9110     1.5490 c3         1 X95      -0.072400
     17 CAU         -0.6340    -2.5490     0.7860 c3         1 X95      -0.067400
     18 CBC         -0.3710    -0.2240    -0.0740 c          1 X95       0.600100
     19 CBI          0.2110    -1.6370    -0.1010 c3         1 X95       0.110500
     20 OAC         -0.3560     3.6000    -2.7730 o          1 X95      -0.727000
     21 OAF          0.7340     1.7040    -3.2110 o          1 X95      -0.727000
     22 CAJ         -5.0610     1.8110     2.7480 ca         1 X95      -0.105000
     23 CAK         -4.3640     2.8730     2.1480 ca         1 X95      -0.168000
     24 CAN         -5.1440     0.5730     2.1380 ca         1 X95      -0.147000
     25 CAO         -3.7390     2.7130     0.9250 ca         1 X95      -0.029000
     26 CAP         -3.7030    -0.3310    -1.0290 cc         1 X95      -0.183100
     27 CAW         -2.4340     1.6960    -1.9270 c3         1 X95      -0.014200
     28 NAX         -0.4890     0.3530    -1.2770 ns         1 X95      -0.472900
     29 CBB         -0.0990     2.3950    -2.5940 c          1 X95       0.711000
     30 CBE         -3.3040     0.9730    -0.9600 cd         1 X95      -0.085400
     31 CBF         -4.5100     0.4170     0.9070 ca         1 X95      -0.043200
     32 CBG         -3.8090     1.4730     0.2820 ca         1 X95      -0.074800
     33 CBJ         -0.9490     1.6950    -1.5090 c3         1 X95      -0.033300
     34 NXZ         -4.4240    -0.6670     0.0850 na         1 X95      -0.236700
     35 HA           2.0560    -0.8750    -1.5560 h1         1 X95       0.054700
     36 HB1C         4.0530    -0.4890     0.7000 hc         1 X95       0.034200
     37 HB2C         4.2920    -0.0030    -0.9720 hc         1 X95       0.034200
     38 HAT1         2.2910     1.4740    -0.8360 hc         1 X95       0.078200
     39 HAT2         2.0490     0.9940     0.8360 hc         1 X95       0.078200
     40 HAG          6.2900     4.9640     1.6440 ha         1 X95       0.081000
     41 HAH          5.6020     4.8080    -0.7300 ha         1 X95       0.087500
     42 HAI          5.3510     3.3740     3.2960 ha         1 X95       0.087500
     43 HAL          3.9950     3.0810    -1.4420 ha         1 X95       0.123500
     44 HAM          3.7450     1.6500     2.5780 ha         1 X95       0.123500
     45 H            1.8550    -2.4900     0.7140 hn         1 X95       0.434000
     46 HBI          0.1460    -2.0240    -1.1320 h1         1 X95       0.021700
     47 HAA1        -2.6270    -7.1080     2.0240 hn         1 X95       0.376000
     48 HAA2        -1.4310    -8.1810     2.1350 hn         1 X95       0.376000
     49 HAQ1         0.2100    -6.5720     1.6000 h1         1 X95       0.032200
     50 HAQ2        -0.9770    -6.6560     0.3120 h1         1 X95       0.032200
     51 HAR1        -2.2080    -4.7330     1.3600 hc         1 X95       0.032700
     52 HAR2        -0.9610    -4.6310     2.5910 hc         1 X95       0.032700
     53 HAS1         0.7510    -4.2170     0.8140 hc         1 X95       0.055700
     54 HAS2        -0.4850    -4.3240    -0.4160 hc         1 X95       0.055700
     55 HAU1        -1.6900    -2.3920     0.5470 hc         1 X95       0.041200
     56 HAU2        -0.5070    -2.2450     1.8290 hc         1 X95       0.041200
     57 HAJ         -5.5420     1.9660     3.7040 ha         1 X95       0.084000
     58 HAK         -4.3190     3.8290     2.6530 ha         1 X95       0.092000
     59 HAN         -5.6840    -0.2430     2.6020 ha         1 X95       0.091000
     60 HAO         -3.2020     3.5390     0.4730 ha         1 X95       0.125000
     61 HAP         -3.5260    -1.0610    -1.8040 h4         1 X95       0.206000
     62 HXZ         -4.8440    -1.5660     0.2510 hn         1 X95       0.330000
     63 HAW1        -2.5220     1.2370    -2.9170 hc         1 X95       0.045200
     64 HAW2        -2.7570     2.7330    -2.0380 hc         1 X95       0.045200
     65 HBJ         -0.8570     2.2550    -0.5750 h1         1 X95       0.065700
     66 HAX         -0.0900    -0.1150    -2.0760 hn         1 X95       0.327500
     67 CAS         -0.3110    -4.0310     0.6250 c3         1 X95      -0.089400
     68 OAD         -0.6800     0.3210     0.9780 o          1 X95      -0.644100
@<TRIPOS>BOND
     1     1     2 1   
     2     1     3 1   
     3     1    12 1   
     4     3     4 1   
     5     3    14 1   
     6     3    35 1   
     7     4     9 1   
     8     4    36 1   
     9     4    37 1   
    10     5     6 ar  
    11     5     7 ar  
    12     5    40 1   
    13     6     8 ar  
    14     6    41 1   
    15     7    11 ar  
    16     7    42 1   
    17     8    10 ar  
    18     8    43 1   
    19     9    10 1   
    20     9    38 1   
    21     9    39 1   
    22    10    11 ar  
    23    11    44 1   
    24    13    15 1   
    25    13    47 1   
    26    13    48 1   
    27    14    19 1   
    28    14    45 1   
    29    15    16 1   
    30    15    49 1   
    31    15    50 1   
    32    16    51 1   
    33    16    52 1   
    34    16    67 1   
    35    17    19 1   
    36    17    55 1   
    37    17    56 1   
    38    17    67 1   
    39    18    19 1   
    40    18    28 1   
    41    18    68 2   
    42    19    46 1   
    43    20    29 1   
    44    21    29 1   
    45    22    23 ar  
    46    22    24 ar  
    47    22    57 1   
    48    23    25 ar  
    49    23    58 1   
    50    24    31 ar  
    51    24    59 1   
    52    25    32 ar  
    53    25    60 1   
    54    26    30 2   
    55    26    34 1   
    56    26    61 1   
    57    27    30 1   
    58    27    33 1   
    59    27    63 1   
    60    27    64 1   
    61    28    33 1   
    62    28    66 1   
    63    29    33 1   
    64    30    32 1   
    65    31    32 ar  
    66    31    34 1   
    67    33    65 1   
    68    34    62 1   
    69    53    67 1   
    70    54    67 1   
@<TRIPOS>SUBSTRUCTURE
     1 X95         1 TEMP              0 ****  ****    0 ROOT
