@<TRIPOS>MOLECULE
X95
   68    70     1     0     0
SMALL
No Charge or Current Charge


@<TRIPOS>ATOM
      1 C            2.5710    -1.1110    -2.1260 c          1 X95       0.699000
      2 OXT          2.0800    -0.7730    -3.1940 o          1 X95      -0.742000
      3 CA           2.3470    -0.1760    -0.8710 c3         1 X95       0.018500
      4 CB           3.7060     0.2710    -0.2730 c3         1 X95      -0.031400
      5 CAG          7.4790     2.6880     2.2210 ca         1 X95      -0.149000
      6 CAH          6.8840     3.3450     1.1320 ca         1 X95      -0.126500
      7 CAI          6.8160     1.6160     2.8410 ca         1 X95      -0.126500
      8 CAL          5.6240     2.9310     0.6630 ca         1 X95      -0.108000
      9 CAT          3.5910     1.4050     0.7730 c3         1 X95      -0.065100
     10 CBD          4.9530     1.8580     1.2820 ca         1 X95      -0.025300
     11 CAM          5.5570     1.2010     2.3720 ca         1 X95      -0.108000
     12 O            3.1620    -2.1720    -1.9700 o          1 X95      -0.742000
     13 NAA         -1.0640    -6.3990     3.1990 n8         1 X95      -0.998200
     14 N            1.4900    -0.7850     0.2050 n7         1 X95      -0.861400
     15 CAQ         -0.3150    -5.6120     2.2010 c3         1 X95       0.140800
     16 CAR         -0.8600    -4.1720     2.0840 c3         1 X95      -0.072400
     17 CAU         -0.6400    -1.8780     0.9260 c3         1 X95      -0.067400
     18 CBC         -0.7680     0.2920    -0.4450 c          1 X95       0.600100
     19 CBI          0.0560    -1.0200    -0.1620 c3         1 X95       0.110500
     20 OAC         -1.1720     3.4660    -3.4150 o          1 X95      -0.727000
     21 OAF         -1.2190     1.6360    -4.5460 o          1 X95      -0.727000
     22 CAJ         -5.8960     1.3840     2.1320 ca         1 X95      -0.105000
     23 CAK         -5.4750     2.4360     1.2820 ca         1 X95      -0.168000
     24 CAN         -5.6730     0.0380     1.7670 ca         1 X95      -0.147000
     25 CAO         -4.8260     2.1530     0.0600 ca         1 X95      -0.029000
     26 CAP         -4.0530    -1.2040    -1.2670 cc         1 X95      -0.183100
     27 CAW         -3.3980     0.9060    -2.5920 c3         1 X95      -0.014200
     28 NAX         -1.0620     0.5140    -1.7780 ns         1 X95      -0.472900
     29 CBB         -1.4300     2.2750    -3.5240 c          1 X95       0.711000
     30 CBE         -4.0040     0.1780    -1.4160 cd         1 X95      -0.085400
     31 CBF         -5.0280    -0.2110     0.5490 ca         1 X95      -0.043200
     32 CBG         -4.6220     0.8060    -0.2690 ca         1 X95      -0.074800
     33 CBJ         -2.0150     1.5340    -2.2830 c3         1 X95      -0.033300
     34 NXZ         -4.6960    -1.4220    -0.0300 na         1 X95      -0.236700
     35 HA           1.8610     0.7320    -1.2540 h1         1 X95       0.054700
     36 HB1C         4.2140    -0.5910     0.1780 hc         1 X95       0.034200
     37 HB2C         4.3490     0.6200    -1.0910 hc         1 X95       0.034200
     38 HAT1         3.0540     2.2520     0.3270 hc         1 X95       0.078200
     39 HAT2         2.9740     1.0650     1.6130 hc         1 X95       0.078200
     40 HAG          8.4530     3.0080     2.5830 ha         1 X95       0.081000
     41 HAH          7.3970     4.1740     0.6500 ha         1 X95       0.087500
     42 HAI          7.2770     1.1050     3.6830 ha         1 X95       0.087500
     43 HAL          5.1710     3.4430    -0.1820 ha         1 X95       0.123500
     44 HAM          5.0500     0.3690     2.8560 ha         1 X95       0.123500
     45 H            1.9040    -1.6950     0.4420 hn         1 X95       0.434000
     46 HBI          0.0220    -1.6100    -1.0880 h1         1 X95       0.021700
     47 HAA1        -2.0390    -6.4880     2.8880 hn         1 X95       0.376000
     48 HAA2        -0.7160    -7.3650     3.1920 hn         1 X95       0.376000
     49 HAQ1         0.7440    -5.5830     2.4970 h1         1 X95       0.032200
     50 HAQ2        -0.3890    -6.1150     1.2260 h1         1 X95       0.032200
     51 HAR1        -1.9210    -4.2080     1.8070 hc         1 X95       0.032700
     52 HAR2        -0.7990    -3.6820     3.0640 hc         1 X95       0.032700
     53 HAS1         0.9660    -3.2940     1.3230 hc         1 X95       0.055700
     54 HAS2        -0.1560    -3.8130     0.0650 hc         1 X95       0.055700
     55 HAU1        -1.7100    -1.9320     0.6880 hc         1 X95       0.041200
     56 HAU2        -0.5610    -1.3730     1.8970 hc         1 X95       0.041200
     57 HAJ         -6.3950     1.6130     3.0710 ha         1 X95       0.084000
     58 HAK         -5.6510     3.4690     1.5730 ha         1 X95       0.092000
     59 HAN         -5.9920    -0.7770     2.4110 ha         1 X95       0.091000
     60 HAO         -4.4960     2.9510    -0.6000 ha         1 X95       0.125000
     61 HAP         -3.6990    -2.0060    -1.9080 h4         1 X95       0.206000
     62 HXZ         -4.8940    -2.3300     0.3780 hn         1 X95       0.330000
     63 HAW1        -3.2990     0.2140    -3.4370 hc         1 X95       0.045200
     64 HAW2        -4.0790     1.6980    -2.9260 hc         1 X95       0.045200
     65 HBJ         -2.1570     2.2930    -1.5050 h1         1 X95       0.065700
     66 HAX         -0.6570    -0.1340    -2.4440 hn         1 X95       0.327500
     67 CAS         -0.0950    -3.3230     1.0450 c3         1 X95      -0.089400
     68 OAD         -1.1430     1.0590     0.4400 o          1 X95      -0.644100
@<TRIPOS>BOND
     1     1     2 1   
     2     1     3 1   
     3     1    12 1   
     4     3     4 1   
     5     3    14 1   
     6     3    35 1   
     7     4     9 1   
     8     4    36 1   
     9     4    37 1   
    10     5     6 ar  
    11     5     7 ar  
    12     5    40 1   
    13     6     8 ar  
    14     6    41 1   
    15     7    11 ar  
    16     7    42 1   
    17     8    10 ar  
    18     8    43 1   
    19     9    10 1   
    20     9    38 1   
    21     9    39 1   
    22    10    11 ar  
    23    11    44 1   
    24    13    15 1   
    25    13    47 1   
    26    13    48 1   
    27    14    19 1   
    28    14    45 1   
    29    15    16 1   
    30    15    49 1   
    31    15    50 1   
    32    16    51 1   
    33    16    52 1   
    34    16    67 1   
    35    17    19 1   
    36    17    55 1   
    37    17    56 1   
    38    17    67 1   
    39    18    19 1   
    40    18    28 1   
    41    18    68 2   
    42    19    46 1   
    43    20    29 1   
    44    21    29 1   
    45    22    23 ar  
    46    22    24 ar  
    47    22    57 1   
    48    23    25 ar  
    49    23    58 1   
    50    24    31 ar  
    51    24    59 1   
    52    25    32 ar  
    53    25    60 1   
    54    26    30 2   
    55    26    34 1   
    56    26    61 1   
    57    27    30 1   
    58    27    33 1   
    59    27    63 1   
    60    27    64 1   
    61    28    33 1   
    62    28    66 1   
    63    29    33 1   
    64    30    32 1   
    65    31    32 ar  
    66    31    34 1   
    67    33    65 1   
    68    34    62 1   
    69    53    67 1   
    70    54    67 1   
@<TRIPOS>SUBSTRUCTURE
     1 X95         1 TEMP              0 ****  ****    0 ROOT
