@<TRIPOS>MOLECULE
X96
   38    39     1     0     0
SMALL
No Charge or Current Charge


@<TRIPOS>ATOM
      1 C1          -4.0460    -0.5190    -0.1300 ca         1 X96      -0.281200
      2 N1          -5.5380    -0.6000    -0.0410 no         1 X96       0.710200
      3 O1          -6.1630     0.4250     0.2570 o          1 X96      -0.418000
      4 C2          -3.3790     0.7020     0.1150 ca         1 X96       0.041000
      5 N2          -2.0190     3.1690     0.6820 nt         1 X96      -0.591000
      6 O2          -6.0790    -1.6890    -0.2680 o          1 X96      -0.418000
      7 C3          -1.9660     0.7950     0.0340 ca         1 X96      -0.276600
      8 N3           0.1480    -0.3430    -0.3930 nu         1 X96      -0.938200
      9 O3          -0.0700     2.2830     0.1770 o          1 X96      -0.639100
     10 C4          -1.2350    -0.3690    -0.2980 ca         1 X96       0.437000
     11 N4           7.5590    -0.4170     0.1660 n8         1 X96      -0.999200
     12 C5          -1.9020    -1.5770    -0.5470 ca         1 X96      -0.243000
     13 C6          -3.2960    -1.6620    -0.4650 ca         1 X96       0.035000
     14 C7          -1.2730     2.1140     0.2980 c          1 X96       0.632700
     15 C8           1.0670    -1.4130     0.0010 c3         1 X96       0.273100
     16 C9           2.4930    -0.8860    -0.0330 ca         1 X96      -0.123300
     17 C10          3.0490    -0.2660     1.1030 ca         1 X96      -0.090500
     18 C11          4.3660     0.2240     1.0720 ca         1 X96      -0.099000
     19 C12          5.1450     0.1000    -0.0960 ca         1 X96      -0.071300
     20 C13          4.5870    -0.5190    -1.2320 ca         1 X96      -0.099000
     21 C14          3.2700    -1.0080    -1.2010 ca         1 X96      -0.090500
     22 C15          6.5700     0.6370    -0.1340 c3         1 X96       0.194100
     23 H2          -3.9720     1.5790     0.3640 ha         1 X96       0.143000
     24 HN2         -3.0140     3.0810     0.8050 hn         1 X96       0.319500
     25 HN2A        -1.5590     4.0500     0.8570 hn         1 X96       0.319500
     26 HN3          0.5100     0.6080    -0.2480 hn         1 X96       0.543000
     27 HN4          8.4920     0.0080     0.2200 hn         1 X96       0.398000
     28 HN4A         7.3910    -0.7610     1.1180 hn         1 X96       0.398000
     29 H5          -1.3400    -2.4650    -0.8150 ha         1 X96       0.127000
     30 H6          -3.7810    -2.6170    -0.6650 ha         1 X96       0.147000
     31 H8           0.8320    -1.7590     1.0170 h1         1 X96       0.052200
     32 H8A          0.9730    -2.2730    -0.6770 h1         1 X96       0.052200
     33 H10          2.4580    -0.1610     2.0110 ha         1 X96       0.116000
     34 H11          4.7820     0.7010     1.9570 ha         1 X96       0.124000
     35 H13          5.1780    -0.6200    -2.1400 ha         1 X96       0.124000
     36 H14          2.8510    -1.4810    -2.0870 ha         1 X96       0.116000
     37 H15          6.6810     1.4470     0.6020 h1         1 X96       0.038200
     38 H15A         6.7840     1.0520    -1.1290 h1         1 X96       0.038200
@<TRIPOS>BOND
     1     1     2 1   
     2     1     4 ar  
     3     1    13 ar  
     4     2     3 1   
     5     2     6 1   
     6     4     7 ar  
     7     4    23 1   
     8     5    14 1   
     9     5    24 1   
    10     5    25 1   
    11     7    10 ar  
    12     7    14 1   
    13     8    10 1   
    14     8    15 1   
    15     8    26 1   
    16     9    14 2   
    17    10    12 ar  
    18    11    22 1   
    19    11    27 1   
    20    11    28 1   
    21    12    13 ar  
    22    12    29 1   
    23    13    30 1   
    24    15    16 1   
    25    15    31 1   
    26    15    32 1   
    27    16    17 ar  
    28    16    21 ar  
    29    17    18 ar  
    30    17    33 1   
    31    18    19 ar  
    32    18    34 1   
    33    19    20 ar  
    34    19    22 1   
    35    20    21 ar  
    36    20    35 1   
    37    21    36 1   
    38    22    37 1   
    39    22    38 1   
@<TRIPOS>SUBSTRUCTURE
     1 X96         1 TEMP              0 ****  ****    0 ROOT
