@<TRIPOS>MOLECULE
X96
   38    39     1     0     0
SMALL
abcg2


@<TRIPOS>ATOM
      1 C1          -3.9670    -0.5300     0.0170 ca         1 X96      -0.281200
      2 N1          -5.3930    -0.6420     0.0750 no         1 X96       0.710200
      3 O1          -6.0500     0.3670     0.2280 o          1 X96      -0.418000
      4 C2          -3.3690     0.7190     0.1120 ca         1 X96       0.041000
      5 N2          -2.1420     3.2500    -0.2190 nt         1 X96      -0.591000
      6 O2          -5.8880    -1.7450    -0.0330 o          1 X96      -0.418000
      7 C3          -1.9950     0.8610     0.0750 ca         1 X96      -0.276600
      8 N3           0.1610    -0.2290    -0.0030 nu         1 X96      -0.938200
      9 O3          -0.2350     2.3770     0.5830 o          1 X96      -0.639100
     10 C4          -1.1730    -0.3050    -0.0190 ca         1 X96       0.437000
     11 N4           7.4350    -0.1400    -0.6070 n8         1 X96      -0.999200
     12 C5          -1.8160    -1.5590    -0.1530 ca         1 X96      -0.243000
     13 C6          -3.1800    -1.6720    -0.1320 ca         1 X96       0.035000
     14 C7          -1.3810     2.2160     0.1660 c          1 X96       0.632700
     15 C8           1.0510    -1.3670    -0.1170 c3         1 X96       0.273100
     16 C9           2.4770    -0.9030    -0.0150 ca         1 X96      -0.123300
     17 C10          3.0420    -0.6330     1.2260 ca         1 X96      -0.090500
     18 C11          4.3480    -0.1750     1.3220 ca         1 X96      -0.099000
     19 C12          5.1220     0.0290     0.1830 ca         1 X96      -0.071300
     20 C13          4.5550    -0.2480    -1.0580 ca         1 X96      -0.099000
     21 C14          3.2480    -0.7030    -1.1550 ca         1 X96      -0.090500
     22 C15          6.5310     0.5530     0.2950 c3         1 X96       0.194100
     23 H2          -3.9950     1.5910     0.2350 ha         1 X96       0.143000
     24 HN2         -2.9950     3.1360    -0.7370 hn         1 X96       0.319500
     25 HN2A        -1.7560     4.1800    -0.1830 hn         1 X96       0.319500
     26 HN3          0.5580     0.6790     0.1970 hn         1 X96       0.543000
     27 HN4          8.3480     0.2950    -0.5670 hn         1 X96       0.398000
     28 HN4A         7.5650    -1.0920    -0.2890 hn         1 X96       0.398000
     29 H5          -1.2250    -2.4570    -0.2610 ha         1 X96       0.127000
     30 H6          -3.6300    -2.6510    -0.2210 ha         1 X96       0.147000
     31 H8           0.8390    -2.0950     0.6730 h1         1 X96       0.052200
     32 H8A          0.8900    -1.8770    -1.0710 h1         1 X96       0.052200
     33 H10          2.4640    -0.7910     2.1290 ha         1 X96       0.116000
     34 H11          4.7730     0.0200     2.3000 ha         1 X96       0.124000
     35 H13          5.1430    -0.1110    -1.9570 ha         1 X96       0.124000
     36 H14          2.8250    -0.9090    -2.1320 ha         1 X96       0.116000
     37 H15          6.8350     0.5160     1.3490 h1         1 X96       0.038200
     38 H15A         6.5320     1.6120     0.0210 h1         1 X96       0.038200
@<TRIPOS>BOND
     1     1     2 1   
     2     1     4 ar  
     3     1    13 ar  
     4     2     3 1   
     5     2     6 1   
     6     4     7 ar  
     7     4    23 1   
     8     5    14 1   
     9     5    24 1   
    10     5    25 1   
    11     7    10 ar  
    12     7    14 1   
    13     8    10 1   
    14     8    15 1   
    15     8    26 1   
    16     9    14 2   
    17    10    12 ar  
    18    11    22 1   
    19    11    27 1   
    20    11    28 1   
    21    12    13 ar  
    22    12    29 1   
    23    13    30 1   
    24    15    16 1   
    25    15    31 1   
    26    15    32 1   
    27    16    17 ar  
    28    16    21 ar  
    29    17    18 ar  
    30    17    33 1   
    31    18    19 ar  
    32    18    34 1   
    33    19    20 ar  
    34    19    22 1   
    35    20    21 ar  
    36    20    35 1   
    37    21    36 1   
    38    22    37 1   
    39    22    38 1   
@<TRIPOS>SUBSTRUCTURE
     1 X96         1 TEMP              0 ****  ****    0 ROOT
