@<TRIPOS>MOLECULE
X97
   68    72     1     0     0
SMALL
No Charge or Current Charge


@<TRIPOS>ATOM
      1 C           -2.8320     0.7440     0.1780 c          1 X97       0.616100
      2 O           -2.8050    -0.4800     0.2230 o          1 X97      -0.605100
      3 C1          -1.5620     1.5670    -0.1210 c3         1 X97      -0.150400
      4 C2          -0.2540     0.7520    -0.2850 c3         1 X97      -0.086400
      5 C3           0.9730     1.6380    -0.5760 c3         1 X97       0.114000
      6 N4           2.2120     0.8510    -0.7280 n          1 X97      -0.385400
      7 C5           2.6610     0.4080    -1.9410 c          1 X97       0.617000
      8 N6           3.8450    -0.2240    -1.7380 ns         1 X97      -0.513900
      9 C7           4.2470    -0.2320    -0.3160 c5         1 X97       0.139000
     10 C8           3.0560     0.5760     0.3320 c          1 X97       0.569000
     11 O9           2.1100     0.5450    -3.0190 o          1 X97      -0.541000
     12 O10          2.8640     0.9070     1.4970 o          1 X97      -0.498000
     13 C11          4.3210    -1.6880     0.1850 ca         1 X97      -0.100300
     14 C12          3.2180    -2.3270     0.8010 ca         1 X97      -0.085750
     15 C13          3.3100    -3.6620     1.2340 ca         1 X97      -0.113250
     16 C14          4.4980    -4.3840     1.0500 ca         1 X97      -0.098000
     17 C15          5.5940    -3.7720     0.4240 ca         1 X97      -0.113250
     18 C16          5.5030    -2.4380    -0.0090 ca         1 X97      -0.085750
     19 C17          5.5550     0.5330    -0.0330 ca         1 X97      -0.100300
     20 C18          6.2330     1.2640    -1.0370 ca         1 X97      -0.085750
     21 C19          7.4220     1.9560    -0.7430 ca         1 X97      -0.113250
     22 C20          7.9510     1.9310     0.5560 ca         1 X97      -0.098000
     23 C21          7.2880     1.2140     1.5630 ca         1 X97      -0.113250
     24 C22          6.1000     0.5230     1.2710 ca         1 X97      -0.085750
     25 N           -4.0400     1.4370     0.3990 n          1 X97      -0.402800
     26 CA          -5.3200     0.7310     0.6900 c5         1 X97       0.035700
     27 C4          -5.9890     0.0690    -0.5700 c          1 X97       0.600100
     28 O1          -5.6400     0.2390    -1.7350 o          1 X97      -0.601100
     29 CB          -6.2000     1.9070     1.2200 c5         1 X97      -0.084400
     30 CG          -5.7010     3.1010     0.3680 c5         1 X97      -0.094400
     31 CD          -4.1640     2.9110     0.4150 c5         1 X97       0.111000
     32 N1          -7.1110    -0.7360    -0.2490 n          1 X97      -0.413800
     33 CD1         -7.9270    -1.3770    -1.3050 c5         1 X97       0.102500
     34 CA1         -7.4440    -1.2390     1.1070 c5         1 X97       0.102500
     35 CB1         -8.8450    -1.8520     0.8680 c5         1 X97      -0.094400
     36 CG1         -8.6600    -2.4990    -0.5240 c5         1 X97      -0.094400
     37 H1          -1.7640     2.1820    -1.0050 hc         1 X97       0.059700
     38 H1A         -1.4640     2.3340     0.6560 hc         1 X97       0.059700
     39 H2          -0.0700     0.1740     0.6290 hc         1 X97       0.068200
     40 H2A         -0.3760     0.0310    -1.1030 hc         1 X97       0.068200
     41 H3           0.7960     2.2150    -1.4940 h1         1 X97       0.063200
     42 H3A          1.1020     2.3610     0.2410 h1         1 X97       0.063200
     43 HN6          4.3240    -0.6630    -2.5140 hn         1 X97       0.351500
     44 H12          2.2760    -1.8050     0.9480 ha         1 X97       0.123000
     45 H13          2.4550    -4.1380     1.7090 ha         1 X97       0.116750
     46 H14          4.5670    -5.4170     1.3840 ha         1 X97       0.115000
     47 H15          6.5140    -4.3310     0.2710 ha         1 X97       0.116750
     48 H16          6.3620    -1.9860    -0.5010 ha         1 X97       0.123000
     49 H18          5.8480     1.3080    -2.0530 ha         1 X97       0.123000
     50 H19          7.9320     2.5130    -1.5260 ha         1 X97       0.116750
     51 H20          8.8710     2.4660     0.7810 ha         1 X97       0.115000
     52 H21          7.6940     1.1940     2.5730 ha         1 X97       0.116750
     53 H22          5.5990    -0.0260     2.0660 ha         1 X97       0.123000
     54 HA          -5.1730    -0.0410     1.4550 h1         1 X97       0.080700
     55 HB2         -7.2760     1.7370     1.1080 hc         1 X97       0.056200
     56 HB3         -6.0110     2.0840     2.2860 hc         1 X97       0.056200
     57 HG2         -6.0740     3.0390    -0.6610 hc         1 X97       0.062200
     58 HG3         -6.0130     4.0710     0.7700 hc         1 X97       0.062200
     59 HD2         -3.7350     3.3240     1.3380 h1         1 X97       0.045700
     60 HD3         -3.6740     3.3880    -0.4440 h1         1 X97       0.045700
     61 HD          -8.6370    -0.6540    -1.7280 h1         1 X97       0.051450
     62 HDA         -7.3160    -1.7830    -2.1220 h1         1 X97       0.051450
     63 HA1         -6.7190    -2.0010     1.4260 h1         1 X97       0.051450
     64 HAA         -7.4820    -0.4510     1.8690 h1         1 X97       0.051450
     65 HB          -9.1240    -2.5760     1.6420 hc         1 X97       0.053700
     66 HBA         -9.6190    -1.0750     0.8470 hc         1 X97       0.053700
     67 HG          -9.6090    -2.7850    -0.9930 hc         1 X97       0.053700
     68 HGA         -8.0410    -3.4020    -0.4600 hc         1 X97       0.053700
@<TRIPOS>BOND
     1     1     2 2   
     2     1     3 1   
     3     1    25 1   
     4     3     4 1   
     5     3    37 1   
     6     3    38 1   
     7     4     5 1   
     8     4    39 1   
     9     4    40 1   
    10     5     6 1   
    11     5    41 1   
    12     5    42 1   
    13     6     7 1   
    14     6    10 1   
    15     7     8 1   
    16     7    11 2   
    17     8     9 1   
    18     8    43 1   
    19     9    10 1   
    20     9    13 1   
    21     9    19 1   
    22    10    12 2   
    23    13    14 ar  
    24    13    18 ar  
    25    14    15 ar  
    26    14    44 1   
    27    15    16 ar  
    28    15    45 1   
    29    16    17 ar  
    30    16    46 1   
    31    17    18 ar  
    32    17    47 1   
    33    18    48 1   
    34    19    20 ar  
    35    19    24 ar  
    36    20    21 ar  
    37    20    49 1   
    38    21    22 ar  
    39    21    50 1   
    40    22    23 ar  
    41    22    51 1   
    42    23    24 ar  
    43    23    52 1   
    44    24    53 1   
    45    25    26 1   
    46    25    31 1   
    47    26    27 1   
    48    26    29 1   
    49    26    54 1   
    50    27    28 2   
    51    27    32 1   
    52    29    30 1   
    53    29    55 1   
    54    29    56 1   
    55    30    31 1   
    56    30    57 1   
    57    30    58 1   
    58    31    59 1   
    59    31    60 1   
    60    32    33 1   
    61    32    34 1   
    62    33    36 1   
    63    33    61 1   
    64    33    62 1   
    65    34    35 1   
    66    34    63 1   
    67    34    64 1   
    68    35    36 1   
    69    35    65 1   
    70    35    66 1   
    71    36    67 1   
    72    36    68 1   
@<TRIPOS>SUBSTRUCTURE
     1 X97         1 TEMP              0 ****  ****    0 ROOT
