@<TRIPOS>MOLECULE
X98
   61    65     1     0     0
SMALL
No Charge or Current Charge


@<TRIPOS>ATOM
      1 C           -1.7790     0.3540     0.2330 c          1 X98       0.618100
      2 O           -2.1330     0.2680     1.4020 o          1 X98      -0.610100
      3 C1          -0.3280     0.0750    -0.1820 c3         1 X98      -0.177400
      4 C2           0.6300    -0.2460     0.9860 c3         1 X98       0.098000
      5 N3           2.0150    -0.5390     0.5240 n          1 X98      -0.279000
      6 C4           2.9760     0.4930     0.5670 c          1 X98       0.434700
      7 C5           4.3770     0.0760     0.1770 cc         1 X98       0.425900
      8 N6           4.7760    -1.1600    -0.1670 nd         1 X98      -0.517100
      9 C7           3.7510    -2.1200    -0.1990 ca         1 X98       0.055400
     10 C8           4.1270    -3.4170    -0.6030 ca         1 X98      -0.033000
     11 C9           3.1820    -4.4470    -0.7100 ca         1 X98      -0.144000
     12 C10          1.8360    -4.1900    -0.4230 ca         1 X98      -0.060000
     13 C11          1.4430    -2.9070    -0.0130 ca         1 X98      -0.158000
     14 C12          2.3940    -1.8670     0.1330 ca         1 X98       0.065600
     15 O13          2.6670     1.6330     0.9120 o          1 X98      -0.531000
     16 C14          5.4430     1.0970     0.2030 ca         1 X98      -0.126900
     17 C15          6.7040     0.8020     0.7710 ca         1 X98      -0.067500
     18 C16          7.7360     1.7560     0.7610 ca         1 X98      -0.122000
     19 C17          7.5310     3.0100     0.1660 ca         1 X98      -0.094000
     20 C18          6.2930     3.3070    -0.4260 ca         1 X98      -0.122000
     21 C19          5.2590     2.3550    -0.4160 ca         1 X98      -0.067500
     22 N           -2.7040     0.7120    -0.7680 n          1 X98      -0.396800
     23 CA          -4.1360     0.9910    -0.4630 c5         1 X98       0.033700
     24 C3          -4.9970    -0.2960    -0.1970 c          1 X98       0.599100
     25 O1          -4.6300    -1.4520    -0.3870 o          1 X98      -0.606100
     26 CB          -4.5940     1.6920    -1.7820 c5         1 X98      -0.084400
     27 CG          -3.7580     0.9500    -2.8560 c5         1 X98      -0.093400
     28 CD          -2.3580     0.8950    -2.1950 c5         1 X98       0.109000
     29 N1          -6.3110    -0.0070     0.2520 n          1 X98      -0.413800
     30 CD1         -7.3030    -1.0820     0.4770 c5         1 X98       0.102000
     31 CA1         -6.7640     1.3020     0.7850 c5         1 X98       0.102000
     32 CB1         -8.2910     1.0700     0.8990 c5         1 X98      -0.094400
     33 CG1         -8.3410    -0.3920     1.4000 c5         1 X98      -0.094400
     34 H1          -0.3400    -0.7200    -0.9340 hc         1 X98       0.071200
     35 H1A          0.0290     0.9260    -0.7720 hc         1 X98       0.071200
     36 H2           0.6350     0.6010     1.6850 h1         1 X98       0.084700
     37 H2A          0.2480    -1.0980     1.5620 h1         1 X98       0.084700
     38 H8           5.1670    -3.6220    -0.8480 ha         1 X98       0.133000
     39 H9           3.4920    -5.4400    -1.0280 ha         1 X98       0.123000
     40 H10          1.0970    -4.9830    -0.5200 ha         1 X98       0.119000
     41 H11          0.3890    -2.7470     0.1900 ha         1 X98       0.131000
     42 H15          6.8840    -0.1670     1.2330 ha         1 X98       0.123500
     43 H16          8.6980     1.5200     1.2120 ha         1 X98       0.114000
     44 H17          8.3310     3.7480     0.1570 ha         1 X98       0.112000
     45 H18          6.1360     4.2740    -0.9000 ha         1 X98       0.114000
     46 H19          4.3150     2.5980    -0.8990 ha         1 X98       0.123500
     47 HA          -4.2260     1.6590     0.4030 h1         1 X98       0.085700
     48 HB2         -5.6710     1.6180    -1.9690 hc         1 X98       0.057700
     49 HB3         -4.3420     2.7590    -1.7630 hc         1 X98       0.057700
     50 HG2         -4.1480    -0.0590    -3.0360 hc         1 X98       0.062200
     51 HG3         -3.7450     1.4710    -3.8190 hc         1 X98       0.062200
     52 HD2         -1.8080     1.8350    -2.3400 h1         1 X98       0.048200
     53 HD3         -1.7570     0.0690    -2.5960 h1         1 X98       0.048200
     54 HD          -7.7560    -1.3880    -0.4760 h1         1 X98       0.051450
     55 HDA         -6.8640    -1.9690     0.9520 h1         1 X98       0.051450
     56 HA1         -6.3120     1.4980     1.7670 h1         1 X98       0.051450
     57 HAA         -6.5410     2.1460     0.1220 h1         1 X98       0.051450
     58 HB          -8.7720     1.7750     1.5870 hc         1 X98       0.054450
     59 HBA         -8.7810     1.1740    -0.0760 hc         1 X98       0.054450
     60 HG          -9.3380    -0.8390     1.3180 hc         1 X98       0.054450
     61 HGA         -8.0360    -0.4590     2.4520 hc         1 X98       0.054450
@<TRIPOS>BOND
     1     1     2 2   
     2     1     3 1   
     3     1    22 1   
     4     3     4 1   
     5     3    34 1   
     6     3    35 1   
     7     4     5 1   
     8     4    36 1   
     9     4    37 1   
    10     5     6 1   
    11     5    14 1   
    12     6     7 1   
    13     6    15 2   
    14     7     8 2   
    15     7    16 1   
    16     8     9 1   
    17     9    10 ar  
    18     9    14 ar  
    19    10    11 ar  
    20    10    38 1   
    21    11    12 ar  
    22    11    39 1   
    23    12    13 ar  
    24    12    40 1   
    25    13    14 ar  
    26    13    41 1   
    27    16    17 ar  
    28    16    21 ar  
    29    17    18 ar  
    30    17    42 1   
    31    18    19 ar  
    32    18    43 1   
    33    19    20 ar  
    34    19    44 1   
    35    20    21 ar  
    36    20    45 1   
    37    21    46 1   
    38    22    23 1   
    39    22    28 1   
    40    23    24 1   
    41    23    26 1   
    42    23    47 1   
    43    24    25 2   
    44    24    29 1   
    45    26    27 1   
    46    26    48 1   
    47    26    49 1   
    48    27    28 1   
    49    27    50 1   
    50    27    51 1   
    51    28    52 1   
    52    28    53 1   
    53    29    30 1   
    54    29    31 1   
    55    30    33 1   
    56    30    54 1   
    57    30    55 1   
    58    31    32 1   
    59    31    56 1   
    60    31    57 1   
    61    32    33 1   
    62    32    58 1   
    63    32    59 1   
    64    33    60 1   
    65    33    61 1   
@<TRIPOS>SUBSTRUCTURE
     1 X98         1 TEMP              0 ****  ****    0 ROOT
