@<TRIPOS>MOLECULE
X99
   50    53     1     0     0
SMALL
No Charge or Current Charge


@<TRIPOS>ATOM
      1 C            0.6320    -0.1530    -0.5090 c          1 X99       0.627100
      2 O            0.9870    -1.0730    -1.2350 o          1 X99      -0.594100
      3 C1          -0.8530     0.1090    -0.2230 c3         1 X99      -0.177400
      4 C2          -1.8030    -1.0070    -0.6970 c3         1 X99       0.122000
      5 N3          -3.2120    -0.7040    -0.3890 n          1 X99      -0.398400
      6 C4          -4.0670    -0.0520    -1.2790 c          1 X99       0.584100
      7 C5          -3.8460    -1.1160     0.7830 c          1 X99       0.584100
      8 O6          -3.7860     0.3900    -2.3830 o          1 X99      -0.483500
      9 O7          -3.3460    -1.7270     1.7170 o          1 X99      -0.483500
     10 C8          -5.3880    -0.0170    -0.5870 ca         1 X99      -0.147100
     11 C9          -6.6110     0.5260    -1.0050 ca         1 X99      -0.045500
     12 C10         -7.7150     0.4100    -0.1330 ca         1 X99      -0.099000
     13 C11         -7.5810    -0.2370     1.1210 ca         1 X99      -0.099000
     14 C12         -6.3400    -0.7780     1.5220 ca         1 X99      -0.045500
     15 C13         -5.2560    -0.6510     0.6430 ca         1 X99      -0.147100
     16 N            1.5840     0.6930     0.0990 n          1 X99      -0.405800
     17 CD           1.2470     2.0130     0.6910 c5         1 X99       0.058000
     18 CA           3.0530     0.4600    -0.0180 c5         1 X99       0.038700
     19 CB           3.6140     1.5690     0.9300 c5         1 X99      -0.143400
     20 CG           2.6210     2.7330     0.7130 c5         1 X99       0.173000
     21 C3           3.5540    -0.9430     0.4900 c          1 X99       0.605100
     22 O1           2.9140    -1.7150     1.1980 o          1 X99      -0.598100
     23 F1           2.8700     3.3910    -0.4910 f          1 X99      -0.107500
     24 F2           2.6980     3.6680     1.7420 f          1 X99      -0.107500
     25 N1           4.8960    -1.2220     0.1260 n          1 X99      -0.408800
     26 CD1          5.5810    -2.4480     0.5970 c5         1 X99       0.101500
     27 CA1          5.6600    -0.5230    -0.9370 c5         1 X99       0.101500
     28 CB1          7.0770    -1.1120    -0.7310 c5         1 X99      -0.094900
     29 CG1          6.7480    -2.5890    -0.4140 c5         1 X99      -0.094900
     30 H1          -0.9690     0.3190     0.8460 hc         1 X99       0.072200
     31 H1A         -1.1150     1.0720    -0.6750 hc         1 X99       0.072200
     32 H2          -1.6920    -1.1480    -1.7810 h1         1 X99       0.083200
     33 H2A         -1.5230    -1.9540    -0.2150 h1         1 X99       0.083200
     34 H9          -6.7070     1.0210    -1.9700 ha         1 X99       0.139000
     35 H10         -8.6790     0.8210    -0.4270 ha         1 X99       0.123000
     36 H11         -8.4420    -0.3190     1.7810 ha         1 X99       0.123000
     37 H12         -6.2290    -1.2780     2.4830 ha         1 X99       0.139000
     38 HD           0.5200     2.5700     0.0840 h1         1 X99       0.078200
     39 HDA          0.8390     1.8970     1.7040 h1         1 X99       0.078200
     40 HA           3.3630     0.6090    -1.0600 h1         1 X99       0.085700
     41 HB           3.5950     1.2410     1.9770 hc         1 X99       0.087200
     42 HBA          4.6470     1.8530     0.7030 hc         1 X99       0.087200
     43 HD1          5.9530    -2.3070     1.6210 h1         1 X99       0.052950
     44 HDA1         4.9250    -3.3290     0.5850 h1         1 X99       0.052950
     45 HA1          5.2600    -0.7720    -1.9290 h1         1 X99       0.052950
     46 HAA          5.6670     0.5680    -0.8250 h1         1 X99       0.052950
     47 HB1          7.7120    -0.9950    -1.6160 hc         1 X99       0.055450
     48 HBA1         7.5890    -0.6280     0.1100 hc         1 X99       0.055450
     49 HG           7.6010    -3.1370     0.0030 hc         1 X99       0.055450
     50 HGA          6.4250    -3.1230    -1.3160 hc         1 X99       0.055450
@<TRIPOS>BOND
     1     1     2 2   
     2     1     3 1   
     3     1    16 1   
     4     3     4 1   
     5     3    30 1   
     6     3    31 1   
     7     4     5 1   
     8     4    32 1   
     9     4    33 1   
    10     5     6 1   
    11     5     7 1   
    12     6     8 2   
    13     6    10 1   
    14     7     9 2   
    15     7    15 1   
    16    10    11 ar  
    17    10    15 ar  
    18    11    12 ar  
    19    11    34 1   
    20    12    13 ar  
    21    12    35 1   
    22    13    14 ar  
    23    13    36 1   
    24    14    15 ar  
    25    14    37 1   
    26    16    17 1   
    27    16    18 1   
    28    17    20 1   
    29    17    38 1   
    30    17    39 1   
    31    18    19 1   
    32    18    21 1   
    33    18    40 1   
    34    19    20 1   
    35    19    41 1   
    36    19    42 1   
    37    20    23 1   
    38    20    24 1   
    39    21    22 2   
    40    21    25 1   
    41    25    26 1   
    42    25    27 1   
    43    26    29 1   
    44    26    43 1   
    45    26    44 1   
    46    27    28 1   
    47    27    45 1   
    48    27    46 1   
    49    28    29 1   
    50    28    47 1   
    51    28    48 1   
    52    29    49 1   
    53    29    50 1   
@<TRIPOS>SUBSTRUCTURE
     1 X99         1 TEMP              0 ****  ****    0 ROOT
