@<TRIPOS>MOLECULE
X99
   50    53     1     0     0
SMALL
bcc


@<TRIPOS>ATOM
      1 C            0.7740    -0.0430    -0.4100 c          1 X99       0.694100
      2 O            1.2020    -0.9750    -1.0750 o          1 X99      -0.594100
      3 C1          -0.7000     0.1640    -0.1510 c3         1 X99      -0.177400
      4 C2          -1.5430    -0.9490    -0.7570 c3         1 X99       0.122000
      5 N3          -2.9500    -0.7520    -0.4780 n          1 X99      -0.532400
      6 C4          -3.7980     0.0030    -1.2740 c          1 X99       0.726600
      7 C5          -3.5960    -1.2570     0.6390 c          1 X99       0.726600
      8 O6          -3.4820     0.5660    -2.2910 o          1 X99      -0.559000
      9 O7          -3.0810    -1.9270     1.4990 o          1 X99      -0.559000
     10 C8          -5.1240    -0.0420    -0.6130 ca         1 X99      -0.147100
     11 C9          -6.3230     0.5300    -0.9810 ca         1 X99      -0.063500
     12 C10         -7.4150     0.3120    -0.1430 ca         1 X99      -0.117000
     13 C11         -7.2940    -0.4530     1.0130 ca         1 X99      -0.117000
     14 C12         -6.0750    -1.0260     1.3750 ca         1 X99      -0.063500
     15 C13         -5.0030    -0.8020     0.5380 ca         1 X99      -0.147100
     16 N            1.6100     0.8600     0.1360 n          1 X99      -0.472800
     17 CD           1.2390     2.0110     0.9280 c5         1 X99       0.058000
     18 CA           3.0460     0.7030    -0.0150 c5         1 X99       0.038700
     19 CB           3.6280     1.9040     0.7490 c5         1 X99      -0.143400
     20 CG           2.4740     2.8790     0.7840 c5         1 X99       0.415600
     21 C3           3.5150    -0.6030     0.6220 c          1 X99       0.672100
     22 O1           2.9270    -1.0580     1.5940 o          1 X99      -0.598100
     23 F1           2.4110     3.5780    -0.3890 f          1 X99      -0.228800
     24 F2           2.5770     3.8060     1.7660 f          1 X99      -0.228800
     25 N1           4.6130    -1.1630     0.1110 n          1 X99      -0.475800
     26 CD1          5.1670    -2.3900     0.6790 c5         1 X99       0.101500
     27 CA1          5.4030    -0.6690    -1.0170 c5         1 X99       0.101500
     28 CB1          6.6990    -1.4630    -0.9040 c5         1 X99      -0.094900
     29 CG1          6.2360    -2.7970    -0.3280 c5         1 X99      -0.094900
     30 H1          -0.8700     0.2200     0.9280 hc         1 X99       0.072200
     31 H1A         -1.0080     1.1310    -0.5590 hc         1 X99       0.072200
     32 H2          -1.4150    -0.9950    -1.8370 h1         1 X99       0.083200
     33 H2A         -1.2560    -1.9190    -0.3560 h1         1 X99       0.083200
     34 H9          -6.4170     1.1250    -1.8800 ha         1 X99       0.157000
     35 H10         -8.3750     0.7440    -0.3940 ha         1 X99       0.141000
     36 H11         -8.1610    -0.6040     1.6420 ha         1 X99       0.141000
     37 H12         -5.9820    -1.6200     2.2740 ha         1 X99       0.157000
     38 HD           0.3450     2.5090     0.5520 h1         1 X99       0.078200
     39 HDA          1.0790     1.7570     1.9810 h1         1 X99       0.078200
     40 HA           3.3110     0.7510    -1.0740 h1         1 X99       0.085700
     41 HB           3.8790     1.6300     1.7750 hc         1 X99       0.087200
     42 HBA          4.5190     2.3160     0.2760 hc         1 X99       0.087200
     43 HD1          5.5980    -2.1910     1.6640 h1         1 X99       0.052950
     44 HDA1         4.3920    -3.1470     0.8020 h1         1 X99       0.052950
     45 HA1          4.9000    -0.8790    -1.9650 h1         1 X99       0.052950
     46 HAA          5.5740     0.4050    -0.9530 h1         1 X99       0.052950
     47 HB1          7.2040    -1.5580    -1.8640 hc         1 X99       0.055450
     48 HBA1         7.3830    -0.9660    -0.2120 hc         1 X99       0.055450
     49 HG           7.0380    -3.3690     0.1340 hc         1 X99       0.055450
     50 HGA          5.7960    -3.4130    -1.1150 hc         1 X99       0.055450
@<TRIPOS>BOND
     1     1     2 2   
     2     1     3 1   
     3     1    16 1   
     4     3     4 1   
     5     3    30 1   
     6     3    31 1   
     7     4     5 1   
     8     4    32 1   
     9     4    33 1   
    10     5     6 1   
    11     5     7 1   
    12     6     8 2   
    13     6    10 1   
    14     7     9 2   
    15     7    15 1   
    16    10    11 ar  
    17    10    15 ar  
    18    11    12 ar  
    19    11    34 1   
    20    12    13 ar  
    21    12    35 1   
    22    13    14 ar  
    23    13    36 1   
    24    14    15 ar  
    25    14    37 1   
    26    16    17 1   
    27    16    18 1   
    28    17    20 1   
    29    17    38 1   
    30    17    39 1   
    31    18    19 1   
    32    18    21 1   
    33    18    40 1   
    34    19    20 1   
    35    19    41 1   
    36    19    42 1   
    37    20    23 1   
    38    20    24 1   
    39    21    22 2   
    40    21    25 1   
    41    25    26 1   
    42    25    27 1   
    43    26    29 1   
    44    26    43 1   
    45    26    44 1   
    46    27    28 1   
    47    27    45 1   
    48    27    46 1   
    49    28    29 1   
    50    28    47 1   
    51    28    48 1   
    52    29    49 1   
    53    29    50 1   
@<TRIPOS>SUBSTRUCTURE
     1 X99         1 TEMP              0 ****  ****    0 ROOT
