@<TRIPOS>MOLECULE
X9A
  118   119     1     0     0
SMALL
No Charge or Current Charge


@<TRIPOS>ATOM
      1 C1          -2.7130    -1.1690     3.9820 c          1 X9A       0.718000
      2 O1          -2.4540    -1.3650     5.1630 o          1 X9A      -0.714000
      3 O2          -2.6380    -0.0650     3.4590 o          1 X9A      -0.714000
      4 C2          -3.3520    -2.3480     3.1660 c3         1 X9A      -0.028300
      5 N2          -2.4650    -2.8670     2.0900 ns         1 X9A      -0.459900
      6 C3          -4.7560    -1.9410     2.5900 c3         1 X9A      -0.137700
      7 C           -4.6750    -1.5160     1.1060 c          1 X9A       0.603100
      8 O           -4.5410    -2.3240     0.1940 o          1 X9A      -0.639100
      9 C4          -5.8250    -3.0390     2.8050 c3         1 X9A      -0.073100
     10 N           -4.7230    -0.1610     0.8750 ns         1 X9A      -0.508900
     11 CA          -4.4000     0.4700    -0.4280 c3         1 X9A       0.029700
     12 C5          -2.8680     0.3430    -0.7310 c          1 X9A       0.570100
     13 O3          -2.1060    -0.2650     0.0060 o          1 X9A      -0.547100
     14 CB          -4.9090     1.9360    -0.4800 c3         1 X9A      -0.071400
     15 CG          -6.4340     2.0800    -0.2530 c3         1 X9A      -0.089400
     16 CD          -6.9170     3.5380    -0.3640 c3         1 X9A       0.049600
     17 NE          -8.3730     3.6060    -0.1400 nu         1 X9A      -0.874000
     18 CZ          -9.1610     4.6610    -0.1440 cz         1 X9A       0.927600
     19 NH1         -8.6800     5.8480    -0.3680 nv         1 X9A      -0.619800
     20 NH2        -10.4310     4.5030     0.0790 nv         1 X9A      -0.619800
     21 N3          -2.4270     0.9620    -1.8930 ns         1 X9A      -0.511900
     22 C21         -0.6720    -0.3290    -3.2380 c3         1 X9A      -0.157700
     23 C11          0.8490    -0.6140    -3.1520 c          1 X9A       0.612100
     24 O11          1.6460    -0.0460    -3.8850 o          1 X9A      -0.607100
     25 C31         -1.0550     0.9590    -2.4320 c3         1 X9A       0.167900
     26 CM2         -1.5510    -1.5870    -2.9750 c3         1 X9A      -0.090100
     27 C7           2.8790     3.5650    -0.8520 c2         1 X9A      -0.273200
     28 C6           1.8660     2.7430    -0.4910 ce         1 X9A      -0.014200
     29 C41         -0.0320     1.3610    -1.3840 c2         1 X9A      -0.165200
     30 C14          6.2220     2.9720     1.1300 c3         1 X9A      -0.049100
     31 C9           5.1020     2.7720     0.0640 c3         1 X9A       0.175300
     32 C8           4.0940     3.9610    -0.0180 c3         1 X9A      -0.017500
     33 C15          7.9130    -0.7330     2.6650 ca         1 X9A      -0.120000
     34 C13          8.7510     0.2460     2.1060 ca         1 X9A      -0.115000
     35 C12          8.2050     1.4440     1.6150 ca         1 X9A      -0.103500
     36 C10          6.8150     1.6700     1.6710 ca         1 X9A      -0.069300
     37 C17          5.9810     0.6890     2.2480 ca         1 X9A      -0.103500
     38 C16          6.5280    -0.5100     2.7380 ca         1 X9A      -0.115000
     39 O9           5.6830     2.5940    -1.2520 os         1 X9A      -0.469000
     40 CM9          6.4010     1.3670    -1.4790 c3         1 X9A       0.146900
     41 CM8          4.7250     5.2820    -0.5270 c3         1 X9A      -0.076100
     42 CM6          1.7430     2.1470     0.9090 c3         1 X9A      -0.077900
     43 N1           1.2210    -1.6460    -2.3040 ns         1 X9A      -0.460900
     44 CA1          2.5980    -2.1730    -2.0880 c3         1 X9A      -0.028300
     45 CC           3.4160    -2.2970    -3.4310 c          1 X9A       0.736000
     46 O4           3.0460    -3.1390    -4.2400 o          1 X9A      -0.723000
     47 CB1          3.3240    -1.4290    -0.9250 c3         1 X9A      -0.075400
     48 CG1          3.0420    -2.0120     0.4910 c3         1 X9A      -0.155400
     49 CD1          1.5330    -2.1730     0.7870 c          1 X9A       0.604100
     50 OE1          0.8630    -1.1700     0.9790 o          1 X9A      -0.571100
     51 OXT          4.4410    -1.6430    -3.5830 o          1 X9A      -0.723000
     52 N4           0.9290    -3.4630     0.7700 n          1 X9A      -0.349000
     53 CM           1.7300    -4.7050     0.7580 c3         1 X9A       0.114300
     54 CA2         -0.5090    -3.6120     0.8330 ce         1 X9A      -0.014600
     55 CE          -1.0960    -3.0500     2.1310 c          1 X9A       0.624300
     56 O5          -0.4400    -2.8340     3.1450 o          1 X9A      -0.629100
     57 CB2         -1.2200    -4.1650    -0.1870 c2         1 X9A      -0.242200
     58 CG2         -0.6670    -4.7400    -1.4780 c3         1 X9A      -0.056900
     59 H2          -3.4970    -3.1630     3.8870 h1         1 X9A       0.068700
     60 HN22        -2.8890    -3.0110     1.1790 hn         1 X9A       0.342500
     61 H3          -5.0900    -1.0690     3.1650 hc         1 X9A       0.069700
     62 H41         -5.9420    -3.2630     3.8720 hc         1 X9A       0.028700
     63 H42         -6.7980    -2.7100     2.4190 hc         1 X9A       0.028700
     64 H43         -5.5450    -3.9650     2.2880 hc         1 X9A       0.028700
     65 H           -4.7480     0.4260     1.7000 hn         1 X9A       0.377500
     66 HA          -4.9150    -0.0930    -1.2180 h1         1 X9A       0.066700
     67 HB2         -4.3720     2.5300     0.2700 hc         1 X9A       0.057700
     68 HB3         -4.6670     2.3720    -1.4570 hc         1 X9A       0.057700
     69 HG2         -6.9660     1.4660    -0.9910 hc         1 X9A       0.067700
     70 HG3         -6.6980     1.6930     0.7390 hc         1 X9A       0.067700
     71 HD2         -6.3870     4.1490     0.3820 h1         1 X9A       0.067200
     72 HD3         -6.6650     3.9250    -1.3620 h1         1 X9A       0.067200
     73 HE          -8.8330     2.7210     0.0400 hn         1 X9A       0.374000
     74 HH11        -7.6980     5.9800    -0.5410 hn         1 X9A       0.374500
     75 HH12        -9.2600     6.6700    -0.3760 hn         1 X9A       0.374500
     76 HH21       -11.0700     5.2810     0.0850 hn         1 X9A       0.374500
     77 HH22       -10.8260     3.5950     0.2550 hn         1 X9A       0.374500
     78 HN32        -3.1350     1.4360    -2.4390 hn         1 X9A       0.290500
     79 H21         -0.8510    -0.0490    -4.2830 hc         1 X9A       0.054700
     80 H31         -1.0460     1.7710    -3.1710 h1         1 X9A       0.042700
     81 HM21        -1.4830    -1.9150    -1.9330 hc         1 X9A       0.039700
     82 HM22        -2.6040    -1.3870    -3.2050 hc         1 X9A       0.039700
     83 HM23        -1.2290    -2.4170    -3.6150 hc         1 X9A       0.039700
     84 H7           2.9060     3.9590    -1.8680 ha         1 X9A       0.156000
     85 H5           0.7720     3.0550    -2.3510 ha         1 X9A       0.141000
     86 H4           0.0340     0.6730    -0.5450 ha         1 X9A       0.236000
     87 H'1          7.0050     3.6150     0.7100 hc         1 X9A       0.052700
     88 H'2          5.8060     3.5290     1.9780 hc         1 X9A       0.052700
     89 H9           4.5200     1.8820     0.3360 h1         1 X9A       0.053700
     90 H8           3.7570     4.1740     1.0030 hc         1 X9A       0.059700
     91 H10          8.8640     2.1940     1.1820 ha         1 X9A       0.114500
     92 H6           4.9090     0.8520     2.3210 ha         1 X9A       0.114500
     93 H12          5.8780    -1.2640     3.1770 ha         1 X9A       0.106000
     94 HM91         6.6150     1.2480    -2.5490 h1         1 X9A       0.029700
     95 HM92         7.3590     1.3640    -0.9480 h1         1 X9A       0.029700
     96 HM93         5.8120     0.5010    -1.1510 h1         1 X9A       0.029700
     97 HM81         5.0970     5.1770    -1.5530 hc         1 X9A       0.027033
     98 HM82         3.9810     6.0870    -0.5180 hc         1 X9A       0.027033
     99 HM83         5.5600     5.5910     0.1120 hc         1 X9A       0.027033
    100 HM61         0.6970     1.9850     1.1960 hc         1 X9A       0.063033
    101 HM62         2.2610     1.1840     0.9740 hc         1 X9A       0.063033
    102 HM63         2.1630     2.7980     1.6810 hc         1 X9A       0.063033
    103 H1           0.4680    -2.0690    -1.7770 hn         1 X9A       0.297500
    104 HA1          2.4740    -3.2120    -1.7610 h1         1 X9A       0.019700
    105 HB21         4.4090    -1.4810    -1.0720 hc         1 X9A       0.068200
    106 HB31         3.0640    -0.3630    -0.9550 hc         1 X9A       0.068200
    107 HG21         3.5770    -2.9620     0.5720 hc         1 X9A       0.046200
    108 HG31         3.4650    -1.3150     1.2240 hc         1 X9A       0.046200
    109 HM1          2.4520    -4.6900     1.5840 h1         1 X9A       0.032367
    110 HM2          1.0760    -5.5780     0.8850 h1         1 X9A       0.032367
    111 HM3          2.2640    -4.8000    -0.1950 h1         1 X9A       0.032367
    112 HB          -2.3040    -4.2640    -0.1210 ha         1 X9A       0.189000
    113 HG1         -0.3320    -5.7740    -1.3340 hc         1 X9A       0.038367
    114 HG22        -1.4310    -4.7460    -2.2650 hc         1 X9A       0.038367
    115 HG32         0.1860    -4.1630    -1.8520 hc         1 X9A       0.038367
    116 C51          0.8150     2.4140    -1.4690 ce         1 X9A      -0.197000
    117 H13          8.3360    -1.6600     3.0450 ha         1 X9A       0.104000
    118 H11          9.8240     0.0760     2.0540 ha         1 X9A       0.106000
@<TRIPOS>BOND
     1     1     2 1   
     2     1     3 1   
     3     1     4 1   
     4     4     5 1   
     5     4     6 1   
     6     4    59 1   
     7     5    55 1   
     8     5    60 1   
     9     6     7 1   
    10     6     9 1   
    11     6    61 1   
    12     7     8 2   
    13     7    10 1   
    14     9    62 1   
    15     9    63 1   
    16     9    64 1   
    17    10    11 1   
    18    10    65 1   
    19    11    12 1   
    20    11    14 1   
    21    11    66 1   
    22    12    13 2   
    23    12    21 1   
    24    14    15 1   
    25    14    67 1   
    26    14    68 1   
    27    15    16 1   
    28    15    69 1   
    29    15    70 1   
    30    16    17 1   
    31    16    71 1   
    32    16    72 1   
    33    17    18 2   
    34    17    73 1   
    35    18    19 1   
    36    18    20 1   
    37    19    74 1   
    38    19    75 1   
    39    20    76 1   
    40    20    77 1   
    41    21    25 1   
    42    21    78 1   
    43    22    23 1   
    44    22    25 1   
    45    22    26 1   
    46    22    79 1   
    47    23    24 2   
    48    23    43 1   
    49    25    29 1   
    50    25    80 1   
    51    26    81 1   
    52    26    82 1   
    53    26    83 1   
    54    27    28 2   
    55    27    32 1   
    56    27    84 1   
    57    28    42 1   
    58    28   116 1   
    59    29    86 1   
    60    29   116 2   
    61    30    31 1   
    62    30    36 1   
    63    30    87 1   
    64    30    88 1   
    65    31    32 1   
    66    31    39 1   
    67    31    89 1   
    68    32    41 1   
    69    32    90 1   
    70    33    34 ar  
    71    33    38 ar  
    72    33   117 1   
    73    34    35 ar  
    74    34   118 1   
    75    35    36 ar  
    76    35    91 1   
    77    36    37 ar  
    78    37    38 ar  
    79    37    92 1   
    80    38    93 1   
    81    39    40 1   
    82    40    94 1   
    83    40    95 1   
    84    40    96 1   
    85    41    97 1   
    86    41    98 1   
    87    41    99 1   
    88    42   100 1   
    89    42   101 1   
    90    42   102 1   
    91    43    44 1   
    92    43   103 1   
    93    44    45 1   
    94    44    47 1   
    95    44   104 1   
    96    45    46 1   
    97    45    51 1   
    98    47    48 1   
    99    47   105 1   
   100    47   106 1   
   101    48    49 1   
   102    48   107 1   
   103    48   108 1   
   104    49    50 2   
   105    49    52 1   
   106    52    53 1   
   107    52    54 1   
   108    53   109 1   
   109    53   110 1   
   110    53   111 1   
   111    54    55 1   
   112    54    57 2   
   113    55    56 2   
   114    57    58 1   
   115    57   112 1   
   116    58   113 1   
   117    58   114 1   
   118    58   115 1   
   119    85   116 1   
@<TRIPOS>SUBSTRUCTURE
     1 X9A         1 TEMP              0 ****  ****    0 ROOT
