@<TRIPOS>MOLECULE
X9A
  118   119     1     0     0
SMALL
abcg2


@<TRIPOS>ATOM
      1 C1          -2.6160    -0.5020     3.0780 c          1 X9A       0.718000
      2 O1          -1.4530    -0.6580     3.4610 o          1 X9A      -0.714000
      3 O2          -3.2470     0.5840     3.0230 o          1 X9A      -0.714000
      4 C2          -3.3840    -1.8050     2.7010 c3         1 X9A      -0.028300
      5 N2          -2.6330    -2.6150     1.7750 ns         1 X9A      -0.459900
      6 C3          -4.8280    -1.6190     2.1710 c3         1 X9A      -0.137700
      7 C           -4.8270    -1.1330     0.7220 c          1 X9A       0.603100
      8 O           -5.0990    -1.8680    -0.2160 o          1 X9A      -0.639100
      9 C4          -5.6210    -2.9090     2.3160 c3         1 X9A      -0.073100
     10 N           -4.5050     0.1720     0.5650 ns         1 X9A      -0.508900
     11 CA          -4.0150     0.6630    -0.6960 c3         1 X9A       0.029700
     12 C5          -2.6080     0.0850    -0.9410 c          1 X9A       0.570100
     13 O3          -2.0810    -0.6210    -0.1010 o          1 X9A      -0.547100
     14 CB          -3.9940     2.1930    -0.6960 c3         1 X9A      -0.071400
     15 CG          -5.3770     2.7950    -0.4940 c3         1 X9A      -0.089400
     16 CD          -5.3280     4.3110    -0.5740 c3         1 X9A       0.049600
     17 NE          -6.6570     4.8620    -0.3700 nu         1 X9A      -0.874000
     18 CZ          -6.9400     6.1570    -0.3480 cz         1 X9A       0.927600
     19 NH1         -5.9780     7.0560    -0.4980 nv         1 X9A      -0.619800
     20 NH2         -8.1960     6.5550    -0.1870 nv         1 X9A      -0.619800
     21 N3          -1.9920     0.4100    -2.0860 ns         1 X9A      -0.511900
     22 C21         -0.6100    -1.4330    -3.1030 c3         1 X9A      -0.157700
     23 C11          0.7540    -2.0810    -2.8810 c          1 X9A       0.612100
     24 O11          1.7740    -1.5140    -3.2550 o          1 X9A      -0.607100
     25 C31         -0.6340    -0.0290    -2.4060 c3         1 X9A       0.167900
     26 CM2         -1.8060    -2.3280    -2.8100 c3         1 X9A      -0.090100
     27 C7           2.3420     2.6480     0.3870 c2         1 X9A      -0.273200
     28 C6           1.7240     1.4610     0.2740 ce         1 X9A      -0.014200
     29 C41          0.2650     0.0850    -1.1990 c2         1 X9A      -0.165200
     30 C14          5.6860     3.6620     2.0300 c3         1 X9A      -0.049100
     31 C9           4.6770     3.2750     0.9460 c3         1 X9A       0.175300
     32 C8           3.2410     3.1320     1.4840 c3         1 X9A      -0.017500
     33 C15          9.6510     3.7650     0.3590 ca         1 X9A      -0.120000
     34 C13          8.9120     4.9350     0.4800 ca         1 X9A      -0.115000
     35 C12          7.6400     4.9030     1.0370 ca         1 X9A      -0.103500
     36 C10          7.0850     3.7070     1.4850 ca         1 X9A      -0.069300
     37 C17          7.8380     2.5410     1.3630 ca         1 X9A      -0.103500
     38 C16          9.1100     2.5660     0.8060 ca         1 X9A      -0.115000
     39 O9           4.7100     4.2320    -0.0920 os         1 X9A      -0.469000
     40 CM9          5.1740     3.7470    -1.3270 c3         1 X9A       0.146900
     41 CM8          2.6910     4.4320     2.0740 c3         1 X9A      -0.076100
     42 CM6          1.8090     0.3580     1.2870 c3         1 X9A      -0.077900
     43 N1           0.7670    -3.2750    -2.2750 ns         1 X9A      -0.460900
     44 CA1          1.9730    -4.0460    -2.0380 c3         1 X9A      -0.028300
     45 CC           2.8330    -4.1540    -3.3380 c          1 X9A       0.736000
     46 O4           2.1940    -4.3480    -4.3860 o          1 X9A      -0.723000
     47 CB1          2.7310    -3.6010    -0.7830 c3         1 X9A      -0.075400
     48 CG1          2.2420    -4.2770     0.5060 c3         1 X9A      -0.155400
     49 CD1          0.8060    -3.9140     0.8060 c          1 X9A       0.604100
     50 OE1          0.4820    -2.7560     0.9970 o          1 X9A      -0.571100
     51 OXT          4.0700    -4.1210    -3.2070 o          1 X9A      -0.723000
     52 N4          -0.1400    -4.8980     0.7850 n          1 X9A      -0.349000
     53 CM           0.1640    -6.3220     0.8140 c3         1 X9A       0.114300
     54 CA2         -1.4860    -4.4640     0.8240 ce         1 X9A      -0.014600
     55 CE          -1.9550    -3.7290     2.0510 c          1 X9A       0.624300
     56 O5          -1.7870    -4.2210     3.1610 o          1 X9A      -0.629100
     57 CB2         -2.3660    -4.7980    -0.1210 c2         1 X9A      -0.242200
     58 CG2         -2.1120    -5.6370    -1.3280 c3         1 X9A      -0.056900
     59 H2          -3.4660    -2.3700     3.6350 h1         1 X9A       0.068700
     60 HN22        -2.4160    -2.1640     0.8940 hn         1 X9A       0.342500
     61 H3          -5.2950    -0.8470     2.7890 hc         1 X9A       0.069700
     62 H41         -5.6750    -3.1940     3.3680 hc         1 X9A       0.028700
     63 H42         -6.6430    -2.8010     1.9520 hc         1 X9A       0.028700
     64 H43         -5.1570    -3.7310     1.7710 hc         1 X9A       0.028700
     65 H           -4.0940     0.5880     1.4070 hn         1 X9A       0.377500
     66 HA          -4.6710     0.3200    -1.5010 h1         1 X9A       0.066700
     67 HB2         -3.3120     2.5490     0.0830 hc         1 X9A       0.057700
     68 HB3         -3.5860     2.5440    -1.6470 hc         1 X9A       0.057700
     69 HG2         -6.0570     2.4110    -1.2600 hc         1 X9A       0.067700
     70 HG3         -5.7810     2.4980     0.4760 hc         1 X9A       0.067700
     71 HD2         -4.6480     4.6950     0.1920 h1         1 X9A       0.067200
     72 HD3         -4.9400     4.6220    -1.5490 h1         1 X9A       0.067200
     73 HE          -7.4260     4.2160    -0.2820 hn         1 X9A       0.374000
     74 HH11        -5.0120     6.7940    -0.5960 hn         1 X9A       0.374500
     75 HH12        -6.1780     8.0410    -0.4560 hn         1 X9A       0.374500
     76 HH21        -8.4300     7.5310    -0.1250 hn         1 X9A       0.374500
     77 HH22        -8.9360     5.8930    -0.0240 hn         1 X9A       0.374500
     78 HN32        -2.4870     0.9330    -2.7890 hn         1 X9A       0.290500
     79 H21         -0.6360    -1.2330    -4.1790 hc         1 X9A       0.054700
     80 H31         -0.2800     0.6940    -3.1420 h1         1 X9A       0.042700
     81 HM21        -1.8920    -2.6120    -1.7610 hc         1 X9A       0.039700
     82 HM22        -2.7350    -1.8330    -3.0870 hc         1 X9A       0.039700
     83 HM23        -1.7470    -3.2350    -3.4150 hc         1 X9A       0.039700
     84 H7           2.1880     3.3660    -0.4160 ha         1 X9A       0.156000
     85 H5           0.7860     2.0690    -1.5860 ha         1 X9A       0.141000
     86 H4           0.3560    -0.7800    -0.5560 ha         1 X9A       0.236000
     87 H'1          5.4210     4.6360     2.4490 hc         1 X9A       0.052700
     88 H'2          5.6190     2.9350     2.8440 hc         1 X9A       0.052700
     89 H9           4.9700     2.2900     0.5550 h1         1 X9A       0.053700
     90 H8           3.2900     2.3880     2.2860 hc         1 X9A       0.059700
     91 H10          7.0720     5.8210     1.1280 ha         1 X9A       0.114500
     92 H6           7.4260     1.5990     1.7070 ha         1 X9A       0.114500
     93 H12          9.6790     1.6490     0.7200 ha         1 X9A       0.106000
     94 HM91         5.1390     4.5690    -2.0420 h1         1 X9A       0.029700
     95 HM92         6.2070     3.3880    -1.2700 h1         1 X9A       0.029700
     96 HM93         4.5500     2.9320    -1.7100 h1         1 X9A       0.029700
     97 HM81         2.6650     5.2290     1.3290 hc         1 X9A       0.027033
     98 HM82         1.6720     4.2830     2.4320 hc         1 X9A       0.027033
     99 HM83         3.2820     4.7800     2.9210 hc         1 X9A       0.027033
    100 HM61         0.8160     0.0280     1.5980 hc         1 X9A       0.063033
    101 HM62         2.2990    -0.5250     0.8710 hc         1 X9A       0.063033
    102 HM63         2.3650     0.6530     2.1740 hc         1 X9A       0.063033
    103 H1          -0.1060    -3.6480    -1.9470 hn         1 X9A       0.297500
    104 HA1          1.6260    -5.0740    -1.8690 h1         1 X9A       0.019700
    105 HB21         3.7820    -3.8540    -0.9070 hc         1 X9A       0.068200
    106 HB31         2.6770    -2.5160    -0.6770 hc         1 X9A       0.068200
    107 HG21         2.3970    -5.3530     0.4190 hc         1 X9A       0.046200
    108 HG31         2.8530    -3.9350     1.3450 hc         1 X9A       0.046200
    109 HM1          0.8970    -6.5510     1.5860 h1         1 X9A       0.032367
    110 HM2         -0.7450    -6.8640     1.0560 h1         1 X9A       0.032367
    111 HM3          0.5350    -6.6970    -0.1400 h1         1 X9A       0.032367
    112 HB          -3.3850    -4.4510     0.0080 ha         1 X9A       0.189000
    113 HG1         -2.5350    -6.6360    -1.2000 hc         1 X9A       0.038367
    114 HG22        -2.5980    -5.2030    -2.2030 hc         1 X9A       0.038367
    115 HG32        -1.0530    -5.7620    -1.5530 hc         1 X9A       0.038367
    116 C51          0.8950     1.2240    -0.9090 ce         1 X9A      -0.197000
    117 H13         10.6420     3.7880    -0.0750 ha         1 X9A       0.104000
    118 H11          9.3270     5.8750     0.1400 ha         1 X9A       0.106000
@<TRIPOS>BOND
     1     1     2 1   
     2     1     3 1   
     3     1     4 1   
     4     4     5 1   
     5     4     6 1   
     6     4    59 1   
     7     5    55 1   
     8     5    60 1   
     9     6     7 1   
    10     6     9 1   
    11     6    61 1   
    12     7     8 2   
    13     7    10 1   
    14     9    62 1   
    15     9    63 1   
    16     9    64 1   
    17    10    11 1   
    18    10    65 1   
    19    11    12 1   
    20    11    14 1   
    21    11    66 1   
    22    12    13 2   
    23    12    21 1   
    24    14    15 1   
    25    14    67 1   
    26    14    68 1   
    27    15    16 1   
    28    15    69 1   
    29    15    70 1   
    30    16    17 1   
    31    16    71 1   
    32    16    72 1   
    33    17    18 2   
    34    17    73 1   
    35    18    19 1   
    36    18    20 1   
    37    19    74 1   
    38    19    75 1   
    39    20    76 1   
    40    20    77 1   
    41    21    25 1   
    42    21    78 1   
    43    22    23 1   
    44    22    25 1   
    45    22    26 1   
    46    22    79 1   
    47    23    24 2   
    48    23    43 1   
    49    25    29 1   
    50    25    80 1   
    51    26    81 1   
    52    26    82 1   
    53    26    83 1   
    54    27    28 2   
    55    27    32 1   
    56    27    84 1   
    57    28    42 1   
    58    28   116 1   
    59    29    86 1   
    60    29   116 2   
    61    30    31 1   
    62    30    36 1   
    63    30    87 1   
    64    30    88 1   
    65    31    32 1   
    66    31    39 1   
    67    31    89 1   
    68    32    41 1   
    69    32    90 1   
    70    33    34 ar  
    71    33    38 ar  
    72    33   117 1   
    73    34    35 ar  
    74    34   118 1   
    75    35    36 ar  
    76    35    91 1   
    77    36    37 ar  
    78    37    38 ar  
    79    37    92 1   
    80    38    93 1   
    81    39    40 1   
    82    40    94 1   
    83    40    95 1   
    84    40    96 1   
    85    41    97 1   
    86    41    98 1   
    87    41    99 1   
    88    42   100 1   
    89    42   101 1   
    90    42   102 1   
    91    43    44 1   
    92    43   103 1   
    93    44    45 1   
    94    44    47 1   
    95    44   104 1   
    96    45    46 1   
    97    45    51 1   
    98    47    48 1   
    99    47   105 1   
   100    47   106 1   
   101    48    49 1   
   102    48   107 1   
   103    48   108 1   
   104    49    50 2   
   105    49    52 1   
   106    52    53 1   
   107    52    54 1   
   108    53   109 1   
   109    53   110 1   
   110    53   111 1   
   111    54    55 1   
   112    54    57 2   
   113    55    56 2   
   114    57    58 1   
   115    57   112 1   
   116    58   113 1   
   117    58   114 1   
   118    58   115 1   
   119    85   116 1   
@<TRIPOS>SUBSTRUCTURE
     1 X9A         1 TEMP              0 ****  ****    0 ROOT
