@<TRIPOS>MOLECULE
X9C
   50    54     1     0     0
SMALL
No Charge or Current Charge


@<TRIPOS>ATOM
      1 C1         -15.9380    14.9090    -7.2250 cc         1 X9C      -0.260600
      2 C2         -16.6290    13.7930    -6.8530 cd         1 X9C      -0.017800
      3 C3         -17.3800    14.0870    -5.6910 cd         1 X9C      -0.160000
      4 C4         -17.1400    15.3860    -5.3260 cc         1 X9C      -0.156000
      5 C5         -16.5580    12.5630    -7.6220 cd         1 X9C      -0.185000
      6 C6         -17.2630    11.2970    -7.2750 ca         1 X9C       0.462800
      7 C8         -18.1500     9.1140    -7.8920 ca         1 X9C      -0.047000
      8 C11        -18.4600     9.6930    -4.2520 ca         1 X9C      -0.090000
      9 C12        -19.0750     8.5000    -3.8330 ca         1 X9C      -0.085000
     10 C13        -19.3920     7.4870    -4.7700 ca         1 X9C      -0.160600
     11 C14        -20.0570     6.1830    -4.3630 c          1 X9C       0.613700
     12 C15        -20.9630     4.9890    -2.2740 ca         1 X9C      -0.086000
     13 C16        -20.7010     4.8340    -0.8900 ca         1 X9C       0.246000
     14 C17        -21.3740     3.8470    -0.1520 ca         1 X9C      -0.159000
     15 C20        -21.9130     4.1400    -2.8890 ca         1 X9C      -0.074000
     16 C21        -19.0770     7.7090    -6.1290 ca         1 X9C      -0.024000
     17 C22        -15.7450    12.6260    -8.7520 cc         1 X9C      -0.047400
     18 N          -16.2430    15.8900    -6.2740 na         1 X9C      -0.085000
     19 C          -15.0760    14.9720    -8.4110 c          1 X9C       0.588600
     20 O          -14.4590    15.9810    -8.7310 o          1 X9C      -0.577000
     21 C10        -18.1460     9.9160    -5.6030 ca         1 X9C       0.295000
     22 C18        -22.3080     3.0040    -0.7740 ca         1 X9C      -0.086000
     23 C19        -22.5770     3.1530    -2.1420 ca         1 X9C      -0.132000
     24 C7         -17.5370    10.3210    -8.2590 ca         1 X9C      -0.168000
     25 C9         -18.4610     8.9070    -6.5400 ca         1 X9C      -0.106000
     26 N1         -20.3020     6.0220    -3.0050 ns         1 X9C      -0.157000
     27 N2         -19.7820     5.6240    -0.2390 nv         1 X9C      -1.070000
     28 N3         -17.5550    11.0740    -5.9720 nb         1 X9C      -0.669000
     29 N4         -15.0300    13.7690    -9.1460 n          1 X9C      -0.280000
     30 O1         -20.3390     5.3270    -5.1960 o          1 X9C      -0.589100
     31 H1         -18.0490    13.4180    -5.1630 ha         1 X9C       0.153000
     32 H2         -17.5220    15.9780    -4.5030 h4         1 X9C       0.149000
     33 H3         -18.3770     8.3610    -8.6440 ha         1 X9C       0.124000
     34 H4         -18.2240    10.4600    -3.5200 ha         1 X9C       0.135000
     35 H5         -19.2980     8.3860    -2.7750 ha         1 X9C       0.118000
     36 H6         -21.1710     3.7270     0.9090 ha         1 X9C       0.112000
     37 H7         -22.1640     4.2470    -3.9410 ha         1 X9C       0.132000
     38 H8         -19.3090     6.9490    -6.8730 ha         1 X9C       0.138000
     39 H9         -15.5590    11.7940    -9.4230 h4         1 X9C       0.197000
     40 H10        -14.5150    14.5240   -11.0590 h1         1 X9C       0.057367
     41 H11        -13.1380    13.9270   -10.0880 h1         1 X9C       0.057367
     42 H12        -14.2520    12.7720   -10.8680 h1         1 X9C       0.057367
     43 H13        -15.8740    16.8370    -6.2800 hn         1 X9C       0.366000
     44 H14        -22.8250     2.2400    -0.1960 ha         1 X9C       0.113000
     45 H15        -23.3070     2.5060    -2.6250 ha         1 X9C       0.118000
     46 H16        -17.3060    10.4990    -9.3030 ha         1 X9C       0.122000
     47 H17        -19.9840     6.7900    -2.4300 hn         1 X9C       0.160000
     48 H18        -19.5350     5.3980     0.7230 hn         1 X9C       0.441500
     49 H19        -19.0810     6.1270    -0.7750 hn         1 X9C       0.441500
     50 C23        -14.1850    13.7430   -10.3620 c3         1 X9C       0.073300
@<TRIPOS>BOND
     1     1     2 2   
     2     1    18 1   
     3     1    19 1   
     4     2     3 1   
     5     2     5 1   
     6     3     4 2   
     7     3    31 1   
     8     4    18 1   
     9     4    32 1   
    10     5     6 1   
    11     5    17 2   
    12     6    24 ar  
    13     6    28 ar  
    14     7    24 ar  
    15     7    25 ar  
    16     7    33 1   
    17     8     9 ar  
    18     8    21 ar  
    19     8    34 1   
    20     9    10 ar  
    21     9    35 1   
    22    10    11 1   
    23    10    16 ar  
    24    11    26 1   
    25    11    30 2   
    26    12    13 ar  
    27    12    15 ar  
    28    12    26 1   
    29    13    14 ar  
    30    13    27 1   
    31    14    22 ar  
    32    14    36 1   
    33    15    23 ar  
    34    15    37 1   
    35    16    25 ar  
    36    16    38 1   
    37    17    29 1   
    38    17    39 1   
    39    18    43 1   
    40    19    20 2   
    41    19    29 1   
    42    21    25 ar  
    43    21    28 ar  
    44    22    23 ar  
    45    22    44 1   
    46    23    45 1   
    47    24    46 1   
    48    26    47 1   
    49    27    48 1   
    50    27    49 1   
    51    29    50 1   
    52    40    50 1   
    53    41    50 1   
    54    42    50 1   
@<TRIPOS>SUBSTRUCTURE
     1 X9C         1 TEMP              0 ****  ****    0 ROOT
