@<TRIPOS>MOLECULE
X9C
   50    54     1     0     0
SMALL
abcg2


@<TRIPOS>ATOM
      1 C1         -16.1280    14.8990    -7.3790 cc         1 X9C      -0.260600
      2 C2         -16.8410    13.7760    -6.9400 cd         1 X9C      -0.017800
      3 C3         -17.7580    14.2400    -5.9530 cd         1 X9C      -0.160000
      4 C4         -17.5660    15.6010    -5.8340 cc         1 X9C      -0.156000
      5 C5         -16.5550    12.5110    -7.5550 cd         1 X9C      -0.185000
      6 C6         -17.2260    11.2580    -7.1750 ca         1 X9C       0.462800
      7 C8         -17.9380     9.0170    -7.7200 ca         1 X9C      -0.047000
      8 C11        -18.8810     9.9600    -4.2530 ca         1 X9C      -0.090000
      9 C12        -19.4930     8.8140    -3.8130 ca         1 X9C      -0.085000
     10 C13        -19.6160     7.6830    -4.6590 ca         1 X9C      -0.160600
     11 C14        -20.2840     6.4150    -4.2290 c          1 X9C       0.613700
     12 C15        -20.9530     5.1170    -2.2300 ca         1 X9C      -0.086000
     13 C16        -20.2620     4.5080    -1.1660 ca         1 X9C       0.246000
     14 C17        -20.8940     3.4730    -0.4680 ca         1 X9C      -0.159000
     15 C20        -22.2240     4.6770    -2.5860 ca         1 X9C      -0.074000
     16 C21        -19.1180     7.7460    -5.9430 ca         1 X9C      -0.024000
     17 C22        -15.5860    12.5130    -8.5200 cc         1 X9C      -0.047400
     18 N          -16.5820    15.9930    -6.6940 na         1 X9C      -0.085000
     19 C          -15.1140    14.8990    -8.3810 c          1 X9C       0.588600
     20 O          -14.4800    15.8960    -8.7570 o          1 X9C      -0.577000
     21 C10        -18.3470    10.0370    -5.5600 ca         1 X9C       0.295000
     22 C18        -22.1620     3.0400    -0.8280 ca         1 X9C      -0.086000
     23 C19        -22.8310     3.6360    -1.8950 ca         1 X9C      -0.132000
     24 C7         -17.3280    10.1750    -8.1000 ca         1 X9C      -0.168000
     25 C9         -18.4730     8.9040    -6.4140 ca         1 X9C      -0.106000
     26 N1         -20.3350     6.2080    -2.8850 ns         1 X9C      -0.157000
     27 N2         -19.0070     4.9770    -0.7830 nv         1 X9C      -1.070000
     28 N3         -17.7330    11.1820    -5.9550 nb         1 X9C      -0.669000
     29 N4         -14.8950    13.6270    -8.9170 n          1 X9C      -0.280000
     30 O1         -20.7390     5.6170    -5.0460 o          1 X9C      -0.589100
     31 H1         -18.4610    13.6480    -5.3970 ha         1 X9C       0.153000
     32 H2         -18.0570    16.3170    -5.1960 h4         1 X9C       0.149000
     33 H3         -18.0320     8.1860    -8.4080 ha         1 X9C       0.124000
     34 H4         -18.7970    10.8260    -3.6100 ha         1 X9C       0.135000
     35 H5         -19.9110     8.7980    -2.8150 ha         1 X9C       0.118000
     36 H6         -20.3690     3.0030     0.3550 ha         1 X9C       0.112000
     37 H7         -22.7360     5.1630    -3.4040 ha         1 X9C       0.132000
     38 H8         -19.2170     6.8900    -6.5980 ha         1 X9C       0.138000
     39 H9         -15.2810    11.6080    -9.0220 h4         1 X9C       0.197000
     40 H10        -13.4410    14.4310   -10.1700 h1         1 X9C       0.057367
     41 H11        -13.0880    12.7890    -9.5900 h1         1 X9C       0.057367
     42 H12        -14.3180    13.0430   -10.8510 h1         1 X9C       0.057367
     43 H13        -16.2400    16.9330    -6.8140 hn         1 X9C       0.366000
     44 H14        -22.6250     2.2310    -0.2770 ha         1 X9C       0.113000
     45 H15        -23.8200     3.3010    -2.1800 ha         1 X9C       0.118000
     46 H16        -16.9450    10.2820    -9.1040 ha         1 X9C       0.122000
     47 H17        -19.8320     6.8530    -2.2940 hn         1 X9C       0.160000
     48 H18        -18.5070     4.3530    -0.1660 hn         1 X9C       0.441500
     49 H19        -18.4150     5.2820    -1.5450 hn         1 X9C       0.441500
     50 C23        -13.8680    13.4600    -9.9500 c3         1 X9C       0.073300
@<TRIPOS>BOND
     1     1     2 2   
     2     1    18 1   
     3     1    19 1   
     4     2     3 1   
     5     2     5 1   
     6     3     4 2   
     7     3    31 1   
     8     4    18 1   
     9     4    32 1   
    10     5     6 1   
    11     5    17 2   
    12     6    24 ar  
    13     6    28 ar  
    14     7    24 ar  
    15     7    25 ar  
    16     7    33 1   
    17     8     9 ar  
    18     8    21 ar  
    19     8    34 1   
    20     9    10 ar  
    21     9    35 1   
    22    10    11 1   
    23    10    16 ar  
    24    11    26 1   
    25    11    30 2   
    26    12    13 ar  
    27    12    15 ar  
    28    12    26 1   
    29    13    14 ar  
    30    13    27 1   
    31    14    22 ar  
    32    14    36 1   
    33    15    23 ar  
    34    15    37 1   
    35    16    25 ar  
    36    16    38 1   
    37    17    29 1   
    38    17    39 1   
    39    18    43 1   
    40    19    20 2   
    41    19    29 1   
    42    21    25 ar  
    43    21    28 ar  
    44    22    23 ar  
    45    22    44 1   
    46    23    45 1   
    47    24    46 1   
    48    26    47 1   
    49    27    48 1   
    50    27    49 1   
    51    29    50 1   
    52    40    50 1   
    53    41    50 1   
    54    42    50 1   
@<TRIPOS>SUBSTRUCTURE
     1 X9C         1 TEMP              0 ****  ****    0 ROOT
