@<TRIPOS>MOLECULE
X9F
   43    46     1     0     0
SMALL
abcg2


@<TRIPOS>ATOM
      1 C7          -0.0310    -1.4690    -0.0350 ca         1 X9F       0.421900
      2 N2          -0.2510    -2.7720    -0.0350 nb         1 X9F      -0.263000
      3 C8           0.8450    -3.5380    -0.0590 ca         1 X9F       0.171900
      4 C9           2.1190    -3.0390    -0.0800 ca         1 X9F      -0.327000
      5 C10          2.2320    -1.6330    -0.0740 ca         1 X9F       0.424900
      6 N3           3.4750    -1.0840    -0.0840 nu         1 X9F      -0.926900
      7 C11          3.8920     0.2390    -0.0280 ca         1 X9F       0.378000
      8 C12          3.0750     1.3570    -0.0200 ca         1 X9F      -0.177000
      9 C13          3.6270     2.6530     0.0460 ca         1 X9F      -0.044000
     10 C14          4.9780     2.8970     0.1060 ca         1 X9F      -0.161000
     11 C15          5.8000     1.7630     0.0960 ca         1 X9F      -0.008200
     12 N4           7.1440     1.6270     0.1450 na         1 X9F      -0.060400
     13 N5           7.5320     0.3510     0.1160 nc         1 X9F      -0.513100
     14 C16          6.4420    -0.3710     0.0480 cd         1 X9F       0.346800
     15 C17          5.2880     0.4580     0.0300 ca         1 X9F      -0.282900
     16 N6           1.1600    -0.8630    -0.0550 nb         1 X9F      -0.309000
     17 C1          -5.7370     2.1240     1.8170 c3         1 X9F      -0.335100
     18 O1          -6.9640     1.3170    -0.3690 o          1 X9F      -0.523000
     19 O2          -4.9000     2.7350    -0.6040 o          1 X9F      -0.523000
     20 C2          -4.6290     0.2090     0.1090 ca         1 X9F      -0.231500
     21 C3          -5.2530    -1.0250     0.2170 ca         1 X9F      -0.053000
     22 C4          -4.4460    -2.1510     0.2410 ca         1 X9F      -0.100000
     23 C5          -3.0640    -2.0580     0.1620 ca         1 X9F      -0.089000
     24 C6          -2.4480    -0.8060     0.0560 ca         1 X9F       0.310000
     25 N1          -1.0810    -0.5950    -0.0170 nu         1 X9F      -0.931900
     26 C18         -3.2550     0.3360     0.0240 ca         1 X9F      -0.088000
     27 H1          -0.7910     0.3710    -0.0480 hn         1 X9F       0.512000
     28 H8           0.6790    -4.6090    -0.0590 h4         1 X9F       0.024100
     29 H9           2.9830    -3.6870    -0.0960 ha         1 X9F       0.135000
     30 H3           4.2190    -1.7640    -0.1050 hn         1 X9F       0.503000
     31 H12          2.0050     1.2500    -0.0620 ha         1 X9F       0.147000
     32 H13          2.9400     3.4890     0.0500 ha         1 X9F       0.115000
     33 H14          5.3780     3.9000     0.1590 ha         1 X9F       0.124000
     34 H4           7.8340     2.3570     0.2030 hn         1 X9F       0.378000
     35 H16          6.5120    -1.4480     0.0140 h4         1 X9F       0.041800
     36 H11C        -6.1890     1.3070     2.3740 h1         1 X9F       0.102367
     37 H12C        -4.7420     2.3400     2.1990 h1         1 X9F       0.102367
     38 H13C        -6.3640     3.0130     1.8810 h1         1 X9F       0.102367
     39 HA          -6.3290    -1.1130     0.2770 ha         1 X9F       0.140000
     40 H18         -2.7980     1.3140    -0.0710 ha         1 X9F       0.133000
     41 HB          -4.8990    -3.1300     0.3210 ha         1 X9F       0.121000
     42 H5          -2.4630    -2.9520     0.1800 ha         1 X9F       0.157000
     43 S1          -5.6270     1.6790     0.0990 sy         1 X9F       1.052500
@<TRIPOS>BOND
     1     1     2 ar  
     2     1    16 ar  
     3     1    25 1   
     4     2     3 ar  
     5     3     4 ar  
     6     3    28 1   
     7     4     5 ar  
     8     4    29 1   
     9     5     6 1   
    10     5    16 ar  
    11     6     7 1   
    12     6    30 1   
    13     7     8 ar  
    14     7    15 ar  
    15     8     9 ar  
    16     8    31 1   
    17     9    10 ar  
    18     9    32 1   
    19    10    11 ar  
    20    10    33 1   
    21    11    12 1   
    22    11    15 ar  
    23    12    13 1   
    24    12    34 1   
    25    13    14 2   
    26    14    15 1   
    27    14    35 1   
    28    17    36 1   
    29    17    37 1   
    30    17    38 1   
    31    17    43 1   
    32    18    43 2   
    33    19    43 2   
    34    20    21 ar  
    35    20    26 ar  
    36    20    43 1   
    37    21    22 ar  
    38    21    39 1   
    39    22    23 ar  
    40    22    41 1   
    41    23    24 ar  
    42    23    42 1   
    43    24    25 1   
    44    24    26 ar  
    45    25    27 1   
    46    26    40 1   
@<TRIPOS>SUBSTRUCTURE
     1 X9F         1 TEMP              0 ****  ****    0 ROOT
