@<TRIPOS>MOLECULE
X9F
   43    46     1     0     0
SMALL
No Charge or Current Charge


@<TRIPOS>ATOM
      1 C7           0.0060    -1.4540    -0.1890 ca         1 X9F       0.421900
      2 N2          -0.2430    -2.7280    -0.5430 nb         1 X9F      -0.263000
      3 C8           0.8240    -3.4780    -0.8700 ca         1 X9F       0.171900
      4 C9           2.1210    -2.9460    -0.8500 ca         1 X9F      -0.327000
      5 C10          2.2600    -1.6040    -0.4900 ca         1 X9F       0.424900
      6 N3           3.5250    -1.0410    -0.4360 nu         1 X9F      -0.926900
      7 C11          4.0030     0.2590    -0.2750 ca         1 X9F       0.378000
      8 C12          3.2720     1.4050    -0.6610 ca         1 X9F      -0.177000
      9 C13          3.8160     2.7020    -0.4920 ca         1 X9F      -0.044000
     10 C14          5.1040     2.8650     0.0600 ca         1 X9F      -0.161000
     11 C15          5.8060     1.7090     0.4190 ca         1 X9F      -0.008200
     12 N4           7.0640     1.5770     0.9730 na         1 X9F      -0.060400
     13 N5           7.3650     0.2170     1.1780 nc         1 X9F      -0.513100
     14 C16          6.2800    -0.4450     0.7400 cd         1 X9F       0.346800
     15 C17          5.2790     0.4690     0.2520 ca         1 X9F      -0.282900
     16 N6           1.2020    -0.8520    -0.1520 nb         1 X9F      -0.309000
     17 C1          -5.8590     2.3230     1.6420 c3         1 X9F      -0.335100
     18 O1          -7.1650     1.0260    -0.2240 o          1 X9F      -0.523000
     19 O2          -5.1600     2.4760    -0.8790 o          1 X9F      -0.523000
     20 C2          -4.7030     0.1230     0.3090 ca         1 X9F      -0.231500
     21 C3          -5.2230    -1.1190     0.7280 ca         1 X9F      -0.053000
     22 C4          -4.3570    -2.2020     0.9520 ca         1 X9F      -0.100000
     23 C5          -2.9720    -2.0540     0.7550 ca         1 X9F      -0.089000
     24 C6          -2.4370    -0.8230     0.3250 ca         1 X9F       0.310000
     25 N1          -1.0600    -0.6280     0.1320 nu         1 X9F      -0.931900
     26 C18         -3.3080     0.2630     0.1170 ca         1 X9F      -0.088000
     27 H1          -0.7770     0.3500     0.1670 hn         1 X9F       0.512000
     28 H8           0.6360    -4.5140    -1.1500 h4         1 X9F       0.024100
     29 H9           2.9780    -3.5580    -1.1130 ha         1 X9F       0.135000
     30 H3           4.2620    -1.7400    -0.4690 hn         1 X9F       0.503000
     31 H12          2.2910     1.3000    -1.1100 ha         1 X9F       0.147000
     32 H13          3.2410     3.5750    -0.7940 ha         1 X9F       0.115000
     33 H14          5.5350     3.8540     0.1970 ha         1 X9F       0.124000
     34 H4           7.7090     2.3280     1.2140 hn         1 X9F       0.378000
     35 H16          6.2660    -1.5260     0.7970 h4         1 X9F       0.041800
     36 H11C        -6.2500     1.6030     2.3680 h1         1 X9F       0.102367
     37 H12C        -4.8390     2.6240     1.9060 h1         1 X9F       0.102367
     38 H13C        -6.5140     3.1970     1.5710 h1         1 X9F       0.102367
     39 HA          -6.2930    -1.2490     0.8880 ha         1 X9F       0.140000
     40 H18         -2.8990     1.2180    -0.2020 ha         1 X9F       0.133000
     41 HB          -4.7580    -3.1560     1.2860 ha         1 X9F       0.121000
     42 H5          -2.3200    -2.8960     0.9590 ha         1 X9F       0.157000
     43 S1          -5.8090     1.5290     0.0360 sy         1 X9F       1.052500
@<TRIPOS>BOND
     1     1     2 ar  
     2     1    16 ar  
     3     1    25 1   
     4     2     3 ar  
     5     3     4 ar  
     6     3    28 1   
     7     4     5 ar  
     8     4    29 1   
     9     5     6 1   
    10     5    16 ar  
    11     6     7 1   
    12     6    30 1   
    13     7     8 ar  
    14     7    15 ar  
    15     8     9 ar  
    16     8    31 1   
    17     9    10 ar  
    18     9    32 1   
    19    10    11 ar  
    20    10    33 1   
    21    11    12 1   
    22    11    15 ar  
    23    12    13 1   
    24    12    34 1   
    25    13    14 2   
    26    14    15 1   
    27    14    35 1   
    28    17    36 1   
    29    17    37 1   
    30    17    38 1   
    31    17    43 1   
    32    18    43 2   
    33    19    43 2   
    34    20    21 ar  
    35    20    26 ar  
    36    20    43 1   
    37    21    22 ar  
    38    21    39 1   
    39    22    23 ar  
    40    22    41 1   
    41    23    24 ar  
    42    23    42 1   
    43    24    25 1   
    44    24    26 ar  
    45    25    27 1   
    46    26    40 1   
@<TRIPOS>SUBSTRUCTURE
     1 X9F         1 TEMP              0 ****  ****    0 ROOT
