@<TRIPOS>MOLECULE
X9G
   55    59     1     0     0
SMALL
No Charge or Current Charge


@<TRIPOS>ATOM
      1 C4          -2.0440     1.5580     0.5160 ca         1 X9G       0.283500
      2 C5          -1.9020     2.8710     0.0170 ca         1 X9G      -0.265000
      3 C6          -0.6360     3.3010    -0.4050 ca         1 X9G       0.152900
      4 N1           0.4330     2.4890    -0.3450 nb         1 X9G      -0.239000
      5 N3          -0.9530     0.7570     0.5690 nb         1 X9G      -0.295000
      6 CAM         -7.4290    -0.4040    -0.9200 cy         1 X9G       0.130800
      7 CBB         -7.9170    -1.5440    -1.8880 cy         1 X9G       0.137300
      8 OAD         -7.1040    -1.7670    -3.0420 oh         1 X9G      -0.633000
      9 CAN         -7.6130    -2.4670    -0.6500 cy         1 X9G       0.130800
     10 NBC         -6.5470    -1.4640    -0.3390 nq         1 X9G      -0.699600
     11 CAV         -5.0090    -0.1870     1.0870 cc         1 X9G      -0.211300
     12 CAK         -3.7540    -0.1070     0.5540 cd         1 X9G      -0.086000
     13 CAS         -5.2410     1.0460     1.7480 cc         1 X9G       0.279300
     14 CAA         -6.5210     1.3710     2.4670 c3         1 X9G      -0.123400
     15 NAQ         -4.2350     1.8970     1.6770 nd         1 X9G      -0.516800
     16 NBE         -3.3240     1.1630     0.9370 na         1 X9G       0.098300
     17 C2           0.2130     1.2530     0.1310 ca         1 X9G       0.412900
     18 NAR          1.2830     0.3780     0.2480 nu         1 X9G      -0.929900
     19 CAT          2.6250     0.4020    -0.1620 ca         1 X9G       0.281000
     20 CAJ          3.5580    -0.3800     0.5520 ca         1 X9G      -0.102000
     21 CAZ          4.8970    -0.3670     0.1380 ca         1 X9G      -0.064800
     22 CAW          6.0440    -1.0440     0.6660 cc         1 X9G       0.031800
     23 Cl1          6.0210    -2.1070     2.0420 cl         1 X9G      -0.167000
     24 CAU          7.1380    -0.6920    -0.1170 cd         1 X9G      -0.035300
     25 CAB          8.5720    -1.1350     0.0220 c3         1 X9G      -0.039900
     26 NBD          6.6880     0.1960    -1.1260 na         1 X9G      -0.080700
     27 CAC          7.4550     0.8510    -2.1990 c3         1 X9G       0.062900
     28 CBA          5.3220     0.3660    -0.9340 ca         1 X9G      -0.055200
     29 CAI          4.4220     1.1430    -1.6780 ca         1 X9G      -0.109000
     30 CAH          3.0650     1.1520    -1.2840 ca         1 X9G      -0.087000
     31 H1          -2.7550     3.5430    -0.0390 ha         1 X9G       0.162000
     32 H2          -0.4740     4.3050    -0.7930 h4         1 X9G       0.025100
     33 H3          -6.9200     0.4360    -1.4060 h1         1 X9G       0.052950
     34 H4          -8.2150    -0.0330    -0.2480 h1         1 X9G       0.052950
     35 H5          -8.9740    -1.4870    -2.1730 h1         1 X9G       0.042700
     36 H6          -6.1840    -1.8000    -2.6940 ho         1 X9G       0.441000
     37 H7          -8.4350    -2.5120     0.0760 h1         1 X9G       0.052950
     38 H8          -7.2700    -3.4780    -0.8960 h1         1 X9G       0.052950
     39 H10         -6.7980    -1.1950     1.7260 h1         1 X9G       0.036700
     40 H11         -5.4620    -2.2620     1.2600 h1         1 X9G       0.036700
     41 H12         -3.1700    -0.8040    -0.0360 h4         1 X9G       0.180000
     42 H13         -6.6770     0.6880     3.3100 hc         1 X9G       0.049033
     43 H14         -6.5080     2.3930     2.8620 hc         1 X9G       0.049033
     44 H15         -7.3800     1.2840     1.7920 hc         1 X9G       0.049033
     45 H16          1.0460    -0.4290     0.8240 hn         1 X9G       0.510000
     46 H17          3.2520    -0.9730     1.4090 ha         1 X9G       0.124000
     47 H18          8.9150    -1.6460    -0.8850 hc         1 X9G       0.054367
     48 H19          9.2330    -0.2780     0.1970 hc         1 X9G       0.054367
     49 H20          8.7010    -1.8290     0.8610 hc         1 X9G       0.054367
     50 H21          7.0640     0.5330    -3.1740 h1         1 X9G       0.050700
     51 H22          7.3580     1.9400    -2.1060 h1         1 X9G       0.050700
     52 H23          8.5150     0.5790    -2.1310 h1         1 X9G       0.050700
     53 H24          4.7510     1.7190    -2.5400 ha         1 X9G       0.117000
     54 H25          2.3580     1.7290    -1.8700 ha         1 X9G       0.137000
     55 CAL         -5.9830    -1.3300     1.0030 c3         1 X9G       0.250100
@<TRIPOS>BOND
     1     1     2 ar  
     2     1     5 ar  
     3     1    16 1   
     4     2     3 ar  
     5     2    31 1   
     6     3     4 ar  
     7     3    32 1   
     8     4    17 ar  
     9     5    17 ar  
    10     6     7 1   
    11     6    10 1   
    12     6    33 1   
    13     6    34 1   
    14     7     8 1   
    15     7     9 1   
    16     7    35 1   
    17     8    36 1   
    18     9    10 1   
    19     9    37 1   
    20     9    38 1   
    21    10    55 1   
    22    11    12 2   
    23    11    13 1   
    24    11    55 1   
    25    12    16 1   
    26    12    41 1   
    27    13    14 1   
    28    13    15 2   
    29    14    42 1   
    30    14    43 1   
    31    14    44 1   
    32    15    16 1   
    33    17    18 1   
    34    18    19 1   
    35    18    45 1   
    36    19    20 ar  
    37    19    30 ar  
    38    20    21 ar  
    39    20    46 1   
    40    21    22 1   
    41    21    28 ar  
    42    22    23 1   
    43    22    24 2   
    44    24    25 1   
    45    24    26 1   
    46    25    47 1   
    47    25    48 1   
    48    25    49 1   
    49    26    27 1   
    50    26    28 1   
    51    27    50 1   
    52    27    51 1   
    53    27    52 1   
    54    28    29 ar  
    55    29    30 ar  
    56    29    53 1   
    57    30    54 1   
    58    39    55 1   
    59    40    55 1   
@<TRIPOS>SUBSTRUCTURE
     1 X9G         1 TEMP              0 ****  ****    0 ROOT
