@<TRIPOS>MOLECULE
X9G
   55    59     1     0     0
SMALL
abcg2


@<TRIPOS>ATOM
      1 C4          -1.9580     1.7740     0.5550 ca         1 X9G       0.283500
      2 C5          -1.6770     3.1390     0.5900 ca         1 X9G      -0.265000
      3 C6          -0.3600     3.4610     0.3340 ca         1 X9G       0.152900
      4 N1           0.5860     2.5680     0.0710 nb         1 X9G      -0.239000
      5 N3          -1.0470     0.8630     0.2930 nb         1 X9G      -0.295000
      6 CAM         -6.9700    -0.8760    -1.0290 cy         1 X9G       0.130800
      7 CBB         -7.7130    -2.1340    -1.4930 cy         1 X9G       0.137300
      8 OAD         -7.1550    -2.6380    -2.6760 oh         1 X9G      -0.633000
      9 CAN         -7.1880    -2.7740    -0.1950 cy         1 X9G       0.130800
     10 NBC         -6.1940    -1.7010    -0.1000 nq         1 X9G      -0.699600
     11 CAV         -4.9790     0.0090     1.1110 cc         1 X9G      -0.211300
     12 CAK         -3.6500     0.0000     0.7970 cd         1 X9G      -0.086000
     13 CAS         -5.2950     1.3850     1.2860 cc         1 X9G       0.279300
     14 CAA         -6.6170     1.9730     1.6360 c3         1 X9G      -0.123400
     15 NAQ         -4.2380     2.1400     1.0990 nd         1 X9G      -0.516800
     16 NBE         -3.2400     1.2960     0.8000 na         1 X9G       0.098300
     17 C2           0.1970     1.2960     0.0600 ca         1 X9G       0.412900
     18 NAR          1.0960     0.3160    -0.1980 nu         1 X9G      -0.929900
     19 CAT          2.4780     0.4190    -0.4170 ca         1 X9G       0.281000
     20 CAJ          3.2820    -0.5960     0.0800 ca         1 X9G      -0.102000
     21 CAZ          4.6520    -0.5590    -0.1750 ca         1 X9G      -0.064800
     22 CAW          5.7490    -1.3970     0.1600 cc         1 X9G       0.031800
     23 CL1          5.6390    -2.8500     1.0700 cl         1 X9G      -0.167000
     24 CAU          6.8950    -0.8490    -0.3530 cd         1 X9G      -0.035300
     25 CAB          8.2900    -1.3470    -0.2760 c3         1 X9G      -0.039900
     26 NBD          6.5580     0.3150    -0.9970 na         1 X9G      -0.080700
     27 CAC          7.4550     1.1750    -1.7310 c3         1 X9G       0.062900
     28 CBA          5.2050     0.5060    -0.9100 ca         1 X9G      -0.055200
     29 CAI          4.4000     1.5220    -1.4170 ca         1 X9G      -0.109000
     30 CAH          3.0410     1.4660    -1.1730 ca         1 X9G      -0.087000
     31 H1          -2.4220     3.8870     0.8000 ha         1 X9G       0.162000
     32 H2          -0.0480     4.4990     0.3420 h4         1 X9G       0.025100
     33 H3          -6.3920    -0.3270    -1.7760 h1         1 X9G       0.052950
     34 H4          -7.6530    -0.1750    -0.5290 h1         1 X9G       0.052950
     35 H5          -8.8010    -2.0450    -1.5620 h1         1 X9G       0.042700
     36 H6          -7.5390    -3.5040    -2.8440 ho         1 X9G       0.441000
     37 H7          -7.9440    -2.7390     0.6010 h1         1 X9G       0.052950
     38 H8          -6.7830    -3.7880    -0.2520 h1         1 X9G       0.052950
     39 H10         -6.8160    -0.8580     1.7400 h1         1 X9G       0.036700
     40 H11         -5.4420    -1.9530     1.8060 h1         1 X9G       0.036700
     41 H12         -2.9740    -0.8100     0.5830 h4         1 X9G       0.180000
     42 H13         -7.0320     1.5040     2.5280 hc         1 X9G       0.049033
     43 H14         -6.5300     3.0420     1.8190 hc         1 X9G       0.049033
     44 H15         -7.3390     1.8270     0.8310 hc         1 X9G       0.049033
     45 H16          0.7390    -0.6160    -0.0560 hn         1 X9G       0.510000
     46 H17          2.8500    -1.4050     0.6570 ha         1 X9G       0.124000
     47 H18          8.6940    -1.5690    -1.2650 hc         1 X9G       0.054367
     48 H19          8.9520    -0.6180     0.1940 hc         1 X9G       0.054367
     49 H20          8.3290    -2.2600     0.3130 hc         1 X9G       0.054367
     50 H21          7.3490     1.0340    -2.8070 h1         1 X9G       0.050700
     51 H22          7.2530     2.2170    -1.4920 h1         1 X9G       0.050700
     52 H23          8.4830     0.9620    -1.4540 h1         1 X9G       0.050700
     53 H24          4.8110     2.3370    -1.9980 ha         1 X9G       0.117000
     54 H25          2.4060     2.2400    -1.5750 ha         1 X9G       0.137000
     55 CAL         -5.9000    -1.1630     1.2060 c3         1 X9G       0.250100
@<TRIPOS>BOND
     1     1     2 ar  
     2     1     5 ar  
     3     1    16 1   
     4     2     3 ar  
     5     2    31 1   
     6     3     4 ar  
     7     3    32 1   
     8     4    17 ar  
     9     5    17 ar  
    10     6     7 1   
    11     6    10 1   
    12     6    33 1   
    13     6    34 1   
    14     7     8 1   
    15     7     9 1   
    16     7    35 1   
    17     8    36 1   
    18     9    10 1   
    19     9    37 1   
    20     9    38 1   
    21    10    55 1   
    22    11    12 2   
    23    11    13 1   
    24    11    55 1   
    25    12    16 1   
    26    12    41 1   
    27    13    14 1   
    28    13    15 2   
    29    14    42 1   
    30    14    43 1   
    31    14    44 1   
    32    15    16 1   
    33    17    18 1   
    34    18    19 1   
    35    18    45 1   
    36    19    20 ar  
    37    19    30 ar  
    38    20    21 ar  
    39    20    46 1   
    40    21    22 1   
    41    21    28 ar  
    42    22    23 1   
    43    22    24 2   
    44    24    25 1   
    45    24    26 1   
    46    25    47 1   
    47    25    48 1   
    48    25    49 1   
    49    26    27 1   
    50    26    28 1   
    51    27    50 1   
    52    27    51 1   
    53    27    52 1   
    54    28    29 ar  
    55    29    30 ar  
    56    29    53 1   
    57    30    54 1   
    58    39    55 1   
    59    40    55 1   
@<TRIPOS>SUBSTRUCTURE
     1 X9G         1 TEMP              0 ****  ****    0 ROOT
