@<TRIPOS>MOLECULE
X9H
   50    54     1     0     0
SMALL
No Charge or Current Charge


@<TRIPOS>ATOM
      1 C01         49.5410     2.3870   -24.3150 c3         1 X9H      -0.051900
      2 C02         50.0650     2.5250   -22.8950 ce         1 X9H      -0.034200
      3 C03         49.4710     3.3460   -21.9960 c2         1 X9H      -0.246200
      4 C04         49.9370     3.4310   -20.5400 c6         1 X9H       0.131900
      5 C07         52.1240     6.5780   -20.6200 ce         1 X9H      -0.275200
      6 C08         53.3880     6.0950   -20.4880 c2         1 X9H      -0.273000
      7 C10         50.4400     2.0460   -20.0250 c6         1 X9H       0.060600
      8 C12         51.1110     1.6110   -22.4270 cc         1 X9H      -0.031100
      9 C13         52.0960     0.8230   -23.0230 cd         1 X9H      -0.037400
     10 C14         52.4930     0.8760   -24.4430 ca         1 X9H      -0.080800
     11 C15         52.7740    -0.2950   -25.1680 ca         1 X9H      -0.061000
     12 C16         53.1330    -0.1870   -26.5230 ca         1 X9H      -0.088000
     13 C17         53.4200    -1.3450   -27.2710 ca         1 X9H      -0.092000
     14 C18         53.7780    -1.2370   -28.6250 ca         1 X9H      -0.105000
     15 C19         53.8480     0.0270   -29.2310 ca         1 X9H      -0.100000
     16 C20         53.5590     1.1830   -28.4840 ca         1 X9H      -0.082000
     17 C21         53.1970     1.0960   -27.1260 ca         1 X9H       0.263000
     18 C23         52.5660     2.1070   -25.1270 ca         1 X9H       0.358900
     19 C24         52.8740     0.1570   -21.9730 ca         1 X9H      -0.256800
     20 C25         54.0240    -0.6510   -21.9500 ca         1 X9H       0.442900
     21 C28         53.8770    -0.7220   -19.6670 ca         1 X9H       0.185900
     22 C30         52.3090     0.5230   -20.7700 ca         1 X9H       0.161500
     23 N05         51.0100     4.4290   -20.4720 ns         1 X9H      -0.503900
     24 N11         51.2740     1.3940   -21.0570 na         1 X9H      -0.178400
     25 N22         52.9160     2.2210   -26.4300 nb         1 X9H      -0.659000
     26 N26         54.7550    -0.9800   -23.0390 nv         1 X9H      -1.074900
     27 N27         54.5260    -1.1010   -20.7920 nb         1 X9H      -0.306000
     28 N29         52.7950     0.0850   -19.5920 nb         1 X9H      -0.235000
     29 O09         49.7650     6.3120   -20.7490 o          1 X9H      -0.599100
     30 H1          48.4540     2.5220   -24.3480 hc         1 X9H       0.050367
     31 H2          49.9800     3.1400   -24.9780 hc         1 X9H       0.050367
     32 H3          49.7500     1.3960   -24.7340 hc         1 X9H       0.050367
     33 H5          48.6410     3.9940   -22.2790 ha         1 X9H       0.194000
     34 H7          49.1080     3.7690   -19.8980 h1         1 X9H       0.102700
     35 H8          51.9640     7.6500   -20.7380 ha         1 X9H       0.201000
     36 H9          54.2500     6.7650   -20.4970 ha         1 X9H       0.170000
     37 H10         53.6170     5.0350   -20.3680 ha         1 X9H       0.170000
     38 H11         49.5760     1.3990   -19.8210 h1         1 X9H       0.080200
     39 H12         51.0030     2.1650   -19.0890 h1         1 X9H       0.080200
     40 H13         52.6800    -1.2710   -24.6970 ha         1 X9H       0.128000
     41 H14         53.3670    -2.3280   -26.8060 ha         1 X9H       0.117000
     42 H15         54.0000    -2.1320   -29.2020 ha         1 X9H       0.118000
     43 H16         54.1260     0.1130   -30.2800 ha         1 X9H       0.119000
     44 H17         53.6120     2.1580   -28.9600 ha         1 X9H       0.133000
     45 H18         52.3660     3.0420   -24.6050 h4         1 X9H       0.026100
     46 H19         54.2800    -1.0860   -18.7230 h5         1 X9H       0.045100
     47 H20         51.9610     4.0960   -20.3940 hn         1 X9H       0.321500
     48 H21         55.6910    -1.3420   -22.8820 hn         1 X9H       0.503500
     49 H22         54.6200    -0.4290   -23.8800 hn         1 X9H       0.503500
     50 C06         50.8600     5.7850   -20.6250 c          1 X9H       0.602300
@<TRIPOS>BOND
     1     1     2 1   
     2     1    30 1   
     3     1    31 1   
     4     1    32 1   
     5     2     3 2   
     6     2     8 1   
     7     3     4 1   
     8     3    33 1   
     9     4     7 1   
    10     4    23 1   
    11     4    34 1   
    12     5     6 2   
    13     5    35 1   
    14     5    50 1   
    15     6    36 1   
    16     6    37 1   
    17     7    24 1   
    18     7    38 1   
    19     7    39 1   
    20     8     9 2   
    21     8    24 1   
    22     9    10 1   
    23     9    19 1   
    24    10    11 ar  
    25    10    18 ar  
    26    11    12 ar  
    27    11    40 1   
    28    12    13 ar  
    29    12    17 ar  
    30    13    14 ar  
    31    13    41 1   
    32    14    15 ar  
    33    14    42 1   
    34    15    16 ar  
    35    15    43 1   
    36    16    17 ar  
    37    16    44 1   
    38    17    25 ar  
    39    18    25 ar  
    40    18    45 1   
    41    19    20 ar  
    42    19    22 ar  
    43    20    26 1   
    44    20    27 ar  
    45    21    27 ar  
    46    21    28 ar  
    47    21    46 1   
    48    22    24 1   
    49    22    28 ar  
    50    23    47 1   
    51    23    50 1   
    52    26    48 1   
    53    26    49 1   
    54    29    50 2   
@<TRIPOS>SUBSTRUCTURE
     1 X9H         1 TEMP              0 ****  ****    0 ROOT
