@<TRIPOS>MOLECULE
X9H
   50    54     1     0     0
SMALL
abcg2


@<TRIPOS>ATOM
      1 C01         50.0620     2.4300   -24.6040 c3         1 X9H      -0.051900
      2 C02         50.3490     2.4940   -23.1350 ce         1 X9H      -0.034200
      3 C03         49.6320     3.2730   -22.3120 c2         1 X9H      -0.246200
      4 C04         49.9270     3.3910   -20.8420 c6         1 X9H       0.131900
      5 C07         51.4920     6.6390   -19.6830 ce         1 X9H      -0.275200
      6 C08         52.7890     6.3850   -19.5430 c2         1 X9H      -0.273000
      7 C10         50.5140     2.0920   -20.3080 c6         1 X9H       0.060600
      8 C12         51.4360     1.7030   -22.5780 cc         1 X9H      -0.031100
      9 C13         52.4700     0.9990   -23.1540 cd         1 X9H      -0.037400
     10 C14         52.7840     0.8550   -24.5840 ca         1 X9H      -0.080800
     11 C15         52.4830    -0.2830   -25.2850 ca         1 X9H      -0.061000
     12 C16         52.8130    -0.3720   -26.6540 ca         1 X9H      -0.088000
     13 C17         52.5170    -1.5090   -27.4380 ca         1 X9H      -0.092000
     14 C18         52.8510    -1.5370   -28.7640 ca         1 X9H      -0.105000
     15 C19         53.4960    -0.4320   -29.3590 ca         1 X9H      -0.100000
     16 C20         53.7950     0.6820   -28.6210 ca         1 X9H      -0.082000
     17 C21         53.4590     0.7380   -27.2500 ca         1 X9H       0.263000
     18 C23         53.4440     1.8980   -25.2820 ca         1 X9H       0.358900
     19 C24         53.2270     0.4500   -22.0740 ca         1 X9H      -0.256800
     20 C25         54.3860    -0.3410   -21.9170 ca         1 X9H       0.442900
     21 C28         54.0870    -0.2240   -19.6440 ca         1 X9H       0.185900
     22 C30         52.6080     0.8450   -20.8840 ca         1 X9H       0.161500
     23 N05         50.7990     4.5240   -20.5960 ns         1 X9H      -0.503900
     24 N11         51.5380     1.6070   -21.2040 na         1 X9H      -0.178400
     25 N22         53.7650     1.8540   -26.5450 nb         1 X9H      -0.659000
     26 N26         55.1140    -0.7880   -22.9470 nv         1 X9H      -1.074900
     27 N27         54.7880    -0.6650   -20.6840 nb         1 X9H      -0.306000
     28 N29         53.0010     0.5250   -19.6500 nb         1 X9H      -0.235000
     29 O09         49.3240     5.7650   -19.4000 o          1 X9H      -0.599100
     30 H1          49.1650     3.0010   -24.8390 hc         1 X9H       0.050367
     31 H2          50.8800     2.8380   -25.1970 hc         1 X9H       0.050367
     32 H3          49.9070     1.4030   -24.9350 hc         1 X9H       0.050367
     33 H5          48.8370     3.8910   -22.7120 ha         1 X9H       0.194000
     34 H7          49.0030     3.5780   -20.2970 h1         1 X9H       0.102700
     35 H8          51.1200     7.6510   -19.5690 ha         1 X9H       0.201000
     36 H9          53.4920     7.1820   -19.3430 ha         1 X9H       0.170000
     37 H10         53.2020     5.3850   -19.5970 ha         1 X9H       0.170000
     38 H11         49.7170     1.3470   -20.2270 h1         1 X9H       0.080200
     39 H12         50.9420     2.2340   -19.3180 h1         1 X9H       0.080200
     40 H13         51.9820    -1.1130   -24.7990 ha         1 X9H       0.128000
     41 H14         52.0230    -2.3540   -26.9740 ha         1 X9H       0.117000
     42 H15         52.6220    -2.4080   -29.3640 ha         1 X9H       0.118000
     43 H16         53.7550    -0.4690   -30.4090 ha         1 X9H       0.119000
     44 H17         54.2890     1.5340   -29.0690 ha         1 X9H       0.133000
     45 H18         53.7030     2.8040   -24.7410 h4         1 X9H       0.026100
     46 H19         54.4630    -0.5160   -18.6690 h5         1 X9H       0.045100
     47 H20         51.6910     4.5300   -21.0670 hn         1 X9H       0.321500
     48 H21         55.9220    -1.3590   -22.7730 hn         1 X9H       0.503500
     49 H22         54.8720    -0.5900   -23.9010 hn         1 X9H       0.503500
     50 C06         50.4370     5.6080   -19.8810 c          1 X9H       0.602300
@<TRIPOS>BOND
     1     1     2 1   
     2     1    30 1   
     3     1    31 1   
     4     1    32 1   
     5     2     3 2   
     6     2     8 1   
     7     3     4 1   
     8     3    33 1   
     9     4     7 1   
    10     4    23 1   
    11     4    34 1   
    12     5     6 2   
    13     5    35 1   
    14     5    50 1   
    15     6    36 1   
    16     6    37 1   
    17     7    24 1   
    18     7    38 1   
    19     7    39 1   
    20     8     9 2   
    21     8    24 1   
    22     9    10 1   
    23     9    19 1   
    24    10    11 ar  
    25    10    18 ar  
    26    11    12 ar  
    27    11    40 1   
    28    12    13 ar  
    29    12    17 ar  
    30    13    14 ar  
    31    13    41 1   
    32    14    15 ar  
    33    14    42 1   
    34    15    16 ar  
    35    15    43 1   
    36    16    17 ar  
    37    16    44 1   
    38    17    25 ar  
    39    18    25 ar  
    40    18    45 1   
    41    19    20 ar  
    42    19    22 ar  
    43    20    26 1   
    44    20    27 ar  
    45    21    27 ar  
    46    21    28 ar  
    47    21    46 1   
    48    22    24 1   
    49    22    28 ar  
    50    23    47 1   
    51    23    50 1   
    52    26    48 1   
    53    26    49 1   
    54    29    50 2   
@<TRIPOS>SUBSTRUCTURE
     1 X9H         1 TEMP              0 ****  ****    0 ROOT
