@<TRIPOS>MOLECULE
X9I
   35    36     1     0     0
SMALL
abcg2


@<TRIPOS>ATOM
      1 C1          -4.3060     0.4360    -0.0040 ca         1 X9I      -0.298200
      2 N1          -5.7360     0.4890    -0.0350 no         1 X9I       0.713200
      3 O1          -6.2740     1.5700     0.0970 o          1 X9I      -0.433500
      4 C2          -3.6590    -0.7860    -0.1260 ca         1 X9I       0.042000
      5 N2          -2.3160    -3.2650     0.1710 nt         1 X9I      -0.598000
      6 O2          -6.3540    -0.5450    -0.1890 o          1 X9I      -0.433500
      7 C3          -2.2800    -0.8710    -0.1130 ca         1 X9I      -0.282600
      8 N3          -0.1680     0.3010    -0.0470 nu         1 X9I      -0.909200
      9 O3          -0.4760    -2.3080    -0.6900 o          1 X9I      -0.620100
     10 C4          -1.5040     0.3260    -0.0170 ca         1 X9I       0.436000
     11 C5          -2.1960     1.5510     0.1390 ca         1 X9I      -0.244000
     12 C6          -3.5640     1.6080     0.1420 ca         1 X9I       0.030000
     13 C7          -1.6130    -2.1990    -0.2340 c          1 X9I       0.629700
     14 C8           0.6770     1.4730     0.0690 c3         1 X9I       0.274100
     15 C9           2.1190     1.0510     0.0550 ca         1 X9I      -0.170300
     16 C10          2.8220     0.9680    -1.1430 ca         1 X9I      -0.117000
     17 C11          4.1410     0.5360    -1.1580 ca         1 X9I      -0.091500
     18 C12          4.7900     0.1780     0.0210 ca         1 X9I      -0.110600
     19 C13          4.0830     0.2650     1.2170 ca         1 X9I      -0.091500
     20 C14          2.7640     0.6920     1.2350 ca         1 X9I      -0.117000
     21 C15          6.2400    -0.2930     0.0010 c          1 X9I       0.710600
     22 O16          6.7560    -0.5540     1.1050 o          1 X9I      -0.714000
     23 O17          6.7820    -0.3770    -1.1170 o          1 X9I      -0.714000
     24 H2          -4.2510    -1.6830    -0.2490 ha         1 X9I       0.136000
     25 H1N2        -1.8970    -4.1790     0.1100 hn         1 X9I       0.315000
     26 H2N2        -3.1620    -3.1910     0.7080 hn         1 X9I       0.315000
     27 HN3          0.2600    -0.5800    -0.2960 hn         1 X9I       0.547000
     28 H5          -1.6400     2.4720     0.2410 ha         1 X9I       0.129000
     29 H6          -4.0520     2.5670     0.2490 ha         1 X9I       0.139000
     30 H18          0.4810     2.1710    -0.7520 h1         1 X9I       0.043200
     31 H28          0.4510     2.0030     0.9990 h1         1 X9I       0.043200
     32 H10          2.3370     1.2460    -2.0710 ha         1 X9I       0.088500
     33 H11          4.6750     0.4750    -2.0970 ha         1 X9I       0.132500
     34 H13          4.5720    -0.0020     2.1440 ha         1 X9I       0.132500
     35 H14          2.2310     0.7540     2.1770 ha         1 X9I       0.088500
@<TRIPOS>BOND
     1     1     2 1   
     2     1     4 ar  
     3     1    12 ar  
     4     2     3 1   
     5     2     6 1   
     6     4     7 ar  
     7     4    24 1   
     8     5    13 1   
     9     5    25 1   
    10     5    26 1   
    11     7    10 ar  
    12     7    13 1   
    13     8    10 1   
    14     8    14 1   
    15     8    27 1   
    16     9    13 2   
    17    10    11 ar  
    18    11    12 ar  
    19    11    28 1   
    20    12    29 1   
    21    14    15 1   
    22    14    30 1   
    23    14    31 1   
    24    15    16 ar  
    25    15    20 ar  
    26    16    17 ar  
    27    16    32 1   
    28    17    18 ar  
    29    17    33 1   
    30    18    19 ar  
    31    18    21 1   
    32    19    20 ar  
    33    19    34 1   
    34    20    35 1   
    35    21    22 1   
    36    21    23 1   
@<TRIPOS>SUBSTRUCTURE
     1 X9I         1 TEMP              0 ****  ****    0 ROOT
