@<TRIPOS>MOLECULE
X9I
   35    36     1     0     0
SMALL
No Charge or Current Charge


@<TRIPOS>ATOM
      1 C1          -4.3780     0.4270    -0.0480 ca         1 X9I      -0.298200
      2 N1          -5.8710     0.4390     0.0490 no         1 X9I       0.713200
      3 O1          -6.4560     1.5220    -0.0760 o          1 X9I      -0.433500
      4 C2          -3.6610    -0.7830     0.0820 ca         1 X9I       0.042000
      5 N2          -2.2050    -3.2350     0.4180 nt         1 X9I      -0.598000
      6 O2          -6.4530    -0.6330     0.2510 o          1 X9I      -0.433500
      7 C3          -2.2460    -0.8110    -0.0070 ca         1 X9I      -0.282600
      8 N3          -0.1810     0.4460    -0.3250 nu         1 X9I      -0.909200
      9 O3          -0.2940    -2.2300    -0.0050 o          1 X9I      -0.620100
     10 C4          -1.5630     0.4060    -0.2290 ca         1 X9I       0.436000
     11 C5          -2.2790     1.6040    -0.3640 ca         1 X9I      -0.244000
     12 C6          -3.6750     1.6260    -0.2740 ca         1 X9I       0.030000
     13 C7          -1.5010    -2.1210     0.1330 c          1 X9I       0.629700
     14 C8           0.6940     1.5110     0.1560 c3         1 X9I       0.274100
     15 C9           2.1340     1.0300     0.0900 ca         1 X9I      -0.170300
     16 C10          2.9320     1.3180    -1.0330 ca         1 X9I      -0.117000
     17 C11          4.2630     0.8710    -1.0950 ca         1 X9I      -0.091500
     18 C12          4.8270     0.1250    -0.0330 ca         1 X9I      -0.110600
     19 C13          4.0160    -0.1610     1.0900 ca         1 X9I      -0.091500
     20 C14          2.6850     0.2870     1.1500 ca         1 X9I      -0.117000
     21 C15          6.2690    -0.3590    -0.0990 c          1 X9I       0.710600
     22 O16          6.7160    -0.9990     0.8430 o          1 X9I      -0.714000
     23 O17          6.9330    -0.0900    -1.0910 o          1 X9I      -0.714000
     24 H2          -4.2180    -1.7020     0.2490 ha         1 X9I       0.136000
     25 H1N2        -1.7130    -4.1100     0.5110 hn         1 X9I       0.315000
     26 H2N2        -3.2030    -3.1950     0.5490 hn         1 X9I       0.315000
     27 HN3          0.2260    -0.4960    -0.2670 hn         1 X9I       0.547000
     28 H5          -1.7540     2.5360    -0.5480 ha         1 X9I       0.129000
     29 H6          -4.1980     2.5750    -0.3840 ha         1 X9I       0.139000
     30 H18          0.5720     2.4170    -0.4540 h1         1 X9I       0.043200
     31 H28          0.4430     1.7660     1.1950 h1         1 X9I       0.043200
     32 H10          2.5190     1.8870    -1.8630 ha         1 X9I       0.088500
     33 H11          4.8570     1.1080    -1.9750 ha         1 X9I       0.132500
     34 H13          4.4170    -0.7340     1.9240 ha         1 X9I       0.132500
     35 H14          2.0800     0.0540     2.0230 ha         1 X9I       0.088500
@<TRIPOS>BOND
     1     1     2 1   
     2     1     4 ar  
     3     1    12 ar  
     4     2     3 1   
     5     2     6 1   
     6     4     7 ar  
     7     4    24 1   
     8     5    13 1   
     9     5    25 1   
    10     5    26 1   
    11     7    10 ar  
    12     7    13 1   
    13     8    10 1   
    14     8    14 1   
    15     8    27 1   
    16     9    13 2   
    17    10    11 ar  
    18    11    12 ar  
    19    11    28 1   
    20    12    29 1   
    21    14    15 1   
    22    14    30 1   
    23    14    31 1   
    24    15    16 ar  
    25    15    20 ar  
    26    16    17 ar  
    27    16    32 1   
    28    17    18 ar  
    29    17    33 1   
    30    18    19 ar  
    31    18    21 1   
    32    19    20 ar  
    33    19    34 1   
    34    20    35 1   
    35    21    22 1   
    36    21    23 1   
@<TRIPOS>SUBSTRUCTURE
     1 X9I         1 TEMP              0 ****  ****    0 ROOT
