@<TRIPOS>MOLECULE
X9J
   58    62     1     0     0
SMALL
No Charge or Current Charge


@<TRIPOS>ATOM
      1 C2         -15.6600     8.6970   -15.6540 ca         1 X9J      -0.107000
      2 C3         -15.4810     7.4040   -16.2010 cp         1 X9J      -0.004000
      3 C7         -14.6290     9.3360   -14.9440 ca         1 X9J      -0.070000
      4 C9         -12.5380     8.6870   -11.5660 c          1 X9J       0.531600
      5 C10        -13.0430     9.1750   -10.2350 cc         1 X9J       0.416500
      6 C13        -13.8580    10.2660    -8.6120 cd         1 X9J       0.559300
      7 C16        -14.4980    11.4120    -7.8200 c3         1 X9J      -0.072300
      8 C19        -14.7100    11.0380    -6.3220 c3         1 X9J      -0.084767
      9 C21        -16.5880     6.7340   -16.9480 cp         1 X9J      -0.005000
     10 C22        -17.9320     6.7380   -16.4940 ca         1 X9J      -0.145000
     11 N29        -15.2800     5.9270   -18.8580 na         1 X9J      -0.311600
     12 C30        -14.6220     4.8750   -20.9680 cc         1 X9J      -0.254900
     13 C31        -13.2960     5.2020   -20.9350 cd         1 X9J      -0.152000
     14 C34        -14.8430     4.1540   -22.1450 cc         1 X9J       0.300900
     15 N1         -12.6660     9.6200   -12.5810 ns         1 X9J      -0.490900
     16 C4         -14.2350     6.7650   -15.9960 ca         1 X9J      -0.151000
     17 C5         -13.2040     7.4000   -15.2850 ca         1 X9J       0.178000
     18 C6         -13.3900     8.6930   -14.7530 ca         1 X9J      -0.138300
     19 O11        -12.0530     7.5780   -11.7680 o          1 X9J      -0.536100
     20 N12        -13.5760    10.3620    -9.9580 nd         1 X9J      -0.719000
     21 N14        -13.5280     9.1020    -8.0700 nc         1 X9J      -0.360300
     22 O15        -12.9820     8.3630    -9.1420 os         1 X9J      -0.039700
     23 C17        -13.5800    12.6640    -7.8870 c3         1 X9J      -0.084767
     24 C18        -15.8810    11.7600    -8.4380 c3         1 X9J      -0.084767
     25 F20        -12.0300     6.7510   -15.1190 f          1 X9J      -0.179000
     26 C23        -18.9400     6.0780   -17.2420 ca         1 X9J       0.323900
     27 N24        -18.7070     5.4270   -18.4150 nb         1 X9J      -0.601000
     28 C25        -16.4390     6.0410   -18.1620 ca         1 X9J      -0.119200
     29 C26        -17.4410     5.4300   -18.8560 ca         1 X9J       0.477000
     30 N27        -16.9240     4.8790   -20.0230 nd         1 X9J      -0.640700
     31 C28        -15.6130     5.1990   -19.9920 cc         1 X9J       0.535400
     32 N32        -12.7850     4.6490   -22.1160 na         1 X9J       0.141800
     33 N33        -13.7540     3.9940   -22.8710 nd         1 X9J      -0.522800
     34 H1         -16.6070     9.2130   -15.7930 ha         1 X9J       0.127000
     35 H2         -14.7950    10.3330   -14.5420 ha         1 X9J       0.121000
     36 H3         -11.3500     8.8260   -14.0100 h1         1 X9J       0.072200
     37 H4         -12.0850    10.3740   -14.4430 h1         1 X9J       0.072200
     38 H5         -13.7560    10.8020    -5.8350 hc         1 X9J       0.044478
     39 H6         -15.1690    11.8690    -5.7720 hc         1 X9J       0.044478
     40 H7         -15.3700    10.1670    -6.2220 hc         1 X9J       0.044478
     41 H8         -18.1980     7.2330   -15.5640 ha         1 X9J       0.127000
     42 H9         -14.3720     6.3090   -18.6350 hn         1 X9J       0.359000
     43 H10        -12.6930     5.7490   -20.2190 h4         1 X9J       0.151000
     44 H11        -15.7780     3.7350   -22.4980 h4         1 X9J       0.063100
     45 H12        -11.3480     5.2160   -23.5470 h1         1 X9J       0.061033
     46 H13        -10.7870     5.2710   -21.8500 h1         1 X9J       0.061033
     47 H14        -10.9920     3.6960   -22.6720 h1         1 X9J       0.061033
     48 H15        -13.0750    10.5120   -12.3160 hn         1 X9J       0.347500
     49 H16        -14.0710     5.7600   -16.3720 ha         1 X9J       0.135000
     50 H17        -12.5900    12.4430    -7.4690 hc         1 X9J       0.044478
     51 H18        -13.4420    12.9990    -8.9220 hc         1 X9J       0.044478
     52 H19        -14.0100    13.4980    -7.3190 hc         1 X9J       0.044478
     53 H20        -16.3680    12.5720    -7.8840 hc         1 X9J       0.044478
     54 H21        -15.7780    12.0810    -9.4820 hc         1 X9J       0.044478
     55 H22        -16.5470    10.8880    -8.4170 hc         1 X9J       0.044478
     56 H23        -19.9700     6.0740   -16.8890 h4         1 X9J       0.024100
     57 C8         -12.2850     9.4000   -13.9770 c3         1 X9J       0.159300
     58 C35        -11.3910     4.7120   -22.5750 c3         1 X9J       0.067900
@<TRIPOS>BOND
     1     1     2 ar  
     2     1     3 ar  
     3     1    34 1   
     4     2     9 1   
     5     2    16 ar  
     6     3    18 ar  
     7     3    35 1   
     8     4     5 1   
     9     4    15 1   
    10     4    19 2   
    11     5    20 2   
    12     5    22 1   
    13     6     7 1   
    14     6    20 1   
    15     6    21 2   
    16     7     8 1   
    17     7    23 1   
    18     7    24 1   
    19     8    38 1   
    20     8    39 1   
    21     8    40 1   
    22     9    10 ar  
    23     9    28 ar  
    24    10    26 ar  
    25    10    41 1   
    26    11    28 1   
    27    11    31 1   
    28    11    42 1   
    29    12    13 2   
    30    12    14 1   
    31    12    31 1   
    32    13    32 1   
    33    13    43 1   
    34    14    33 2   
    35    14    44 1   
    36    15    48 1   
    37    15    57 1   
    38    16    17 ar  
    39    16    49 1   
    40    17    18 ar  
    41    17    25 1   
    42    18    57 1   
    43    21    22 1   
    44    23    50 1   
    45    23    51 1   
    46    23    52 1   
    47    24    53 1   
    48    24    54 1   
    49    24    55 1   
    50    26    27 ar  
    51    26    56 1   
    52    27    29 ar  
    53    28    29 ar  
    54    29    30 1   
    55    30    31 2   
    56    32    33 1   
    57    32    58 1   
    58    36    57 1   
    59    37    57 1   
    60    45    58 1   
    61    46    58 1   
    62    47    58 1   
@<TRIPOS>SUBSTRUCTURE
     1 X9J         1 TEMP              0 ****  ****    0 ROOT
