@<TRIPOS>MOLECULE
X9K
   48    51     1     0     0
SMALL
abcg2


@<TRIPOS>ATOM
      1 O1         -14.4150    16.0350    -8.6330 oh         1 X9K      -0.526100
      2 C14        -17.5040    15.7750    -5.5680 cc         1 X9K      -0.152100
      3 N3         -17.0060    11.6060    -6.4880 ne         1 X9K      -0.183400
      4 C15        -16.0360    15.0930    -7.0950 ca         1 X9K      -0.142200
      5 C17        -14.7070    13.7160    -8.5510 ca         1 X9K      -0.117300
      6 C21        -19.0690     8.4700    -4.8290 ca         1 X9K      -0.082500
      7 C20        -18.4190     9.5770    -5.3370 ca         1 X9K      -0.091000
      8 C19        -15.3420    12.5930    -8.0280 ca         1 X9K      -0.055000
      9 C18        -13.6550    13.5790    -9.6140 c3         1 X9K      -0.030800
     10 C16        -15.0560    14.9910    -8.0860 ca         1 X9K       0.157100
     11 O          -19.6050     4.9790    -5.5040 o          1 X9K      -0.565100
     12 C13        -17.6100    14.4130    -5.5970 cd         1 X9K      -0.233200
     13 C12        -16.6770    13.9530    -6.5680 ca         1 X9K      -0.014800
     14 N4         -16.5650    16.1880    -6.4620 na         1 X9K      -0.228700
     15 C11        -16.3260    12.6760    -7.0450 ca         1 X9K       0.076400
     16 C10        -17.4410     9.4230    -6.3230 ca         1 X9K       0.109400
     17 C1         -20.6600     4.9500    -2.9460 ca         1 X9K      -0.125000
     18 N2         -16.7180    10.4720    -6.9130 nf         1 X9K      -0.220400
     19 C3         -20.6800     3.0370    -1.4710 ca         1 X9K      -0.154000
     20 N          -19.9590     6.0300    -3.5380 ns         1 X9K      -0.173000
     21 C2         -20.0080     4.0890    -2.0750 ca         1 X9K      -0.071000
     22 C4         -22.0270     2.8530    -1.7600 ca         1 X9K      -0.065000
     23 C9         -17.1420     8.1440    -6.7890 ca         1 X9K      -0.091000
     24 C8         -17.8070     7.0380    -6.2880 ca         1 X9K      -0.082500
     25 C7         -18.7690     7.1860    -5.2920 ca         1 X9K      -0.141600
     26 C6         -22.0230     4.7750    -3.2370 ca         1 X9K       0.312000
     27 C5         -22.6890     3.7050    -2.6260 ca         1 X9K      -0.181000
     28 H1         -14.7100    16.8840    -8.2890 ho         1 X9K       0.459000
     29 H2         -18.0370    16.4940    -4.9670 h4         1 X9K       0.214000
     30 H3         -19.8400     8.6230    -4.0830 ha         1 X9K       0.124000
     31 H4         -18.6740    10.5640    -4.9760 ha         1 X9K       0.132500
     32 H5         -15.0580    11.6190    -8.4050 ha         1 X9K       0.135000
     33 H6         -13.9350    14.0970   -10.5330 hc         1 X9K       0.043367
     34 H7         -12.6970    13.9910    -9.2950 hc         1 X9K       0.043367
     35 H8         -13.4970    12.5310    -9.8630 hc         1 X9K       0.043367
     36 H9         -18.2730    13.8140    -4.9960 ha         1 X9K       0.216000
     37 H10        -16.3170    17.1520    -6.6070 hn         1 X9K       0.345000
     38 H11        -20.1620     2.3730    -0.7920 ha         1 X9K       0.116000
     39 H12        -19.6740     6.7910    -2.9400 hn         1 X9K       0.152000
     40 H13        -18.9560     4.2540    -1.8730 ha         1 X9K       0.114000
     41 H14        -23.6760     5.6140    -4.0520 hn         1 X9K       0.451500
     42 H15        -22.2840     6.5220    -4.2370 hn         1 X9K       0.451500
     43 H16        -22.5740     2.0380    -1.3010 ha         1 X9K       0.111000
     44 H17        -16.3860     8.0270    -7.5540 ha         1 X9K       0.132500
     45 H18        -17.5690     6.0540    -6.6670 ha         1 X9K       0.124000
     46 H19        -23.7420     3.5510    -2.8350 ha         1 X9K       0.113000
     47 C          -19.4750     5.9660    -4.8020 c          1 X9K       0.611700
     48 N1         -22.6710     5.5980    -4.1260 nv         1 X9K      -1.062000
@<TRIPOS>BOND
     1     1    10 1   
     2     1    28 1   
     3     2    12 2   
     4     2    14 1   
     5     2    29 1   
     6     3    15 1   
     7     3    18 2   
     8     4    10 ar  
     9     4    13 ar  
    10     4    14 1   
    11     5     8 ar  
    12     5     9 1   
    13     5    10 ar  
    14     6     7 ar  
    15     6    25 ar  
    16     6    30 1   
    17     7    16 ar  
    18     7    31 1   
    19     8    15 ar  
    20     8    32 1   
    21     9    33 1   
    22     9    34 1   
    23     9    35 1   
    24    11    47 2   
    25    12    13 1   
    26    12    36 1   
    27    13    15 ar  
    28    14    37 1   
    29    16    18 1   
    30    16    23 ar  
    31    17    20 1   
    32    17    21 ar  
    33    17    26 ar  
    34    19    21 ar  
    35    19    22 ar  
    36    19    38 1   
    37    20    39 1   
    38    20    47 1   
    39    21    40 1   
    40    22    27 ar  
    41    22    43 1   
    42    23    24 ar  
    43    23    44 1   
    44    24    25 ar  
    45    24    45 1   
    46    25    47 1   
    47    26    27 ar  
    48    26    48 1   
    49    27    46 1   
    50    41    48 1   
    51    42    48 1   
@<TRIPOS>SUBSTRUCTURE
     1 X9K         1 TEMP              0 ****  ****    0 ROOT
