@<TRIPOS>MOLECULE
X9K
   48    51     1     0     0
SMALL
No Charge or Current Charge


@<TRIPOS>ATOM
      1 O1         -14.6330    16.2510    -8.6470 oh         1 X9K      -0.526100
      2 C14        -17.7790    15.5310    -5.6770 cc         1 X9K      -0.152100
      3 N3         -16.3670    11.3890    -6.4070 ne         1 X9K      -0.183400
      4 C15        -16.0860    15.0210    -7.1570 ca         1 X9K      -0.142200
      5 C17        -14.4410    13.8440    -8.4980 ca         1 X9K      -0.117300
      6 C21        -19.2400     8.3260    -5.0500 ca         1 X9K      -0.082500
      7 C20        -18.7910     9.5310    -5.6210 ca         1 X9K      -0.091000
      8 C19        -14.8850    12.6210    -7.9290 ca         1 X9K      -0.055000
      9 C18        -13.3110    13.8300    -9.5240 c3         1 X9K      -0.030800
     10 C16        -15.0490    15.0650    -8.1090 ca         1 X9K       0.157100
     11 O          -18.4480     4.7330    -4.9990 o          1 X9K      -0.565100
     12 C13        -17.5540    14.1630    -5.7010 cd         1 X9K      -0.233200
     13 C12        -16.4980    13.8300    -6.6220 ca         1 X9K      -0.014800
     14 N4         -16.8460    16.0530    -6.6000 na         1 X9K      -0.228700
     15 C11        -15.9290    12.5990    -6.9800 ca         1 X9K       0.076400
     16 C10        -17.6870     9.5410    -6.4880 ca         1 X9K       0.109400
     17 C1         -20.8150     4.8300    -3.1470 ca         1 X9K      -0.125000
     18 N2         -17.2440    10.7550    -7.0640 nf         1 X9K      -0.220400
     19 C3         -20.7790     2.7260    -1.8990 ca         1 X9K      -0.154000
     20 N          -20.1610     5.8320    -3.9280 ns         1 X9K      -0.173000
     21 C2         -20.1260     3.6810    -2.6950 ca         1 X9K      -0.071000
     22 C4         -22.1210     2.9070    -1.5360 ca         1 X9K      -0.065000
     23 C9         -17.0330     8.3350    -6.7890 ca         1 X9K      -0.091000
     24 C8         -17.4760     7.1280    -6.2220 ca         1 X9K      -0.082500
     25 C7         -18.5860     7.1020    -5.3440 ca         1 X9K      -0.141600
     26 C6         -22.1700     5.0060    -2.7710 ca         1 X9K       0.312000
     27 C5         -22.8110     4.0490    -1.9720 ca         1 X9K      -0.181000
     28 H1         -15.1660    16.9730    -8.2620 ho         1 X9K       0.459000
     29 H2         -18.4820    16.1420    -5.1160 h4         1 X9K       0.214000
     30 H3         -20.0950     8.3660    -4.3800 ha         1 X9K       0.124000
     31 H4         -19.3020    10.4620    -5.3870 ha         1 X9K       0.132500
     32 H5         -14.4200    11.6830    -8.2250 ha         1 X9K       0.135000
     33 H6         -13.6450    14.2490   -10.4810 hc         1 X9K       0.043367
     34 H7         -12.4580    14.4230    -9.1770 hc         1 X9K       0.043367
     35 H8         -12.9480    12.8140    -9.7190 hc         1 X9K       0.043367
     36 H9         -18.1040    13.4400    -5.1030 ha         1 X9K       0.216000
     37 H10        -16.7530    17.0420    -6.8160 hn         1 X9K       0.345000
     38 H11        -20.2390     1.8460    -1.5550 ha         1 X9K       0.116000
     39 H12        -20.5700     6.7510    -3.8410 hn         1 X9K       0.152000
     40 H13        -19.0780     3.5250    -2.9350 ha         1 X9K       0.114000
     41 H14        -23.8930     6.1120    -3.0150 hn         1 X9K       0.451500
     42 H15        -22.5690     6.6250    -3.9950 hn         1 X9K       0.451500
     43 H16        -22.6250     2.1670    -0.9170 ha         1 X9K       0.111000
     44 H17        -16.1790     8.3360    -7.4620 ha         1 X9K       0.132500
     45 H18        -16.9500     6.2080    -6.4700 ha         1 X9K       0.124000
     46 H19        -23.8510     4.1840    -1.6870 ha         1 X9K       0.113000
     47 C          -19.0380     5.7780    -4.7490 c          1 X9K       0.611700
     48 N1         -22.8900     6.0980    -3.1890 nv         1 X9K      -1.062000
@<TRIPOS>BOND
     1     1    10 1   
     2     1    28 1   
     3     2    12 2   
     4     2    14 1   
     5     2    29 1   
     6     3    15 1   
     7     3    18 2   
     8     4    10 ar  
     9     4    13 ar  
    10     4    14 1   
    11     5     8 ar  
    12     5     9 1   
    13     5    10 ar  
    14     6     7 ar  
    15     6    25 ar  
    16     6    30 1   
    17     7    16 ar  
    18     7    31 1   
    19     8    15 ar  
    20     8    32 1   
    21     9    33 1   
    22     9    34 1   
    23     9    35 1   
    24    11    47 2   
    25    12    13 1   
    26    12    36 1   
    27    13    15 ar  
    28    14    37 1   
    29    16    18 1   
    30    16    23 ar  
    31    17    20 1   
    32    17    21 ar  
    33    17    26 ar  
    34    19    21 ar  
    35    19    22 ar  
    36    19    38 1   
    37    20    39 1   
    38    20    47 1   
    39    21    40 1   
    40    22    27 ar  
    41    22    43 1   
    42    23    24 ar  
    43    23    44 1   
    44    24    25 ar  
    45    24    45 1   
    46    25    47 1   
    47    26    27 ar  
    48    26    48 1   
    49    27    46 1   
    50    41    48 1   
    51    42    48 1   
@<TRIPOS>SUBSTRUCTURE
     1 X9K         1 TEMP              0 ****  ****    0 ROOT
