@<TRIPOS>MOLECULE
X9M
   78    83     1     0     0
SMALL
No Charge or Current Charge


@<TRIPOS>ATOM
      1 C1          20.6970     4.9870     2.3840 cp         1 X9M       0.004000
      2 C2          21.8160     5.4420     3.2640 cp         1 X9M      -0.045000
      3 C3          23.0820     4.8260     3.1310 ca         1 X9M      -0.108000
      4 C7          21.6470     6.4780     4.2300 ca         1 X9M      -0.033300
      5 C8          20.3140     7.2320     4.3170 c3         1 X9M      -0.051800
      6 C10         21.7690     7.9640     7.1280 c          1 X9M       0.617700
      7 C11         21.9160     9.2110     7.9820 ca         1 X9M      -0.161600
      8 C13         21.0650     9.4010     9.0910 ca         1 X9M      -0.070500
      9 C14         21.1740    10.5440     9.9020 ca         1 X9M      -0.119500
     10 C15         22.1400    11.5420     9.6320 ca         1 X9M      -0.037300
     11 C16         22.9890    11.3460     8.5200 ca         1 X9M      -0.119500
     12 C19         21.2880    12.8810    11.6830 c3         1 X9M      -0.083767
     13 C20         23.7300    12.8650    11.0940 c3         1 X9M      -0.083767
     14 C21         22.0660    14.0730     9.6130 c3         1 X9M      -0.083767
     15 C22         19.4900     4.4420     2.8860 ca         1 X9M      -0.138000
     16 N29         21.7780     5.5410     0.2730 na         1 X9M      -0.300600
     17 C30         22.1220     5.7900    -2.2430 ca         1 X9M      -0.099900
     18 C31         21.6000     5.6210    -3.5460 ca         1 X9M      -0.089000
     19 C32         22.3440     6.0000    -4.6770 ca         1 X9M      -0.080000
     20 C33         23.6280     6.5710    -4.5370 ca         1 X9M      -0.130600
     21 C34         24.1620     6.7140    -3.2400 ca         1 X9M      -0.080000
     22 C35         23.4180     6.3370    -2.1090 ca         1 X9M      -0.089000
     23 C4          24.1650     5.2180     3.9280 ca         1 X9M      -0.104000
     24 C5          23.9930     6.2240     4.8870 ca         1 X9M      -0.124000
     25 C6          22.7420     6.8410     5.0620 ca         1 X9M      -0.046000
     26 N9          22.6540     7.8400     6.0660 ns         1 X9M      -0.165000
     27 O12         20.9240     7.1100     7.3770 o          1 X9M      -0.575100
     28 C17         22.8830    10.2050     7.7070 ca         1 X9M      -0.070500
     29 C18         22.2960    12.8200    10.5000 c3         1 X9M      -0.004700
     30 C23         18.4790     4.0200     1.9890 ca         1 X9M       0.322900
     31 N24         18.5880     4.1060     0.6360 nb         1 X9M      -0.603000
     32 C25         20.7300     5.0350     0.9800 ca         1 X9M      -0.121200
     33 C26         19.7300     4.6230     0.1550 ca         1 X9M       0.468000
     34 N27         20.1050     4.8390    -1.1560 nc         1 X9M      -0.633700
     35 C28         21.3370     5.3900    -1.0500 cd         1 X9M       0.474400
     36 C36         24.4610     6.9640    -5.7390 c          1 X9M       0.612700
     37 N37         23.7950     7.3550    -6.9240 n          1 X9M      -0.409800
     38 O38         25.6820     6.8520    -5.7150 o          1 X9M      -0.588100
     39 C39         24.5850     7.4650    -8.1920 c6         1 X9M       0.066000
     40 C40         23.7130     7.6530    -9.4600 c6         1 X9M       0.143600
     41 O41         22.7760     8.7310    -9.2690 os         1 X9M      -0.452000
     42 C42         21.8750     8.4900    -8.1710 c6         1 X9M       0.143600
     43 C43         22.6690     8.3450    -6.8470 c6         1 X9M       0.066000
     44 H1          23.2200     4.0320     2.4010 ha         1 X9M       0.121000
     45 H2          19.6170     6.7250     4.9940 hc         1 X9M       0.052700
     46 H3          20.4410     8.2610     4.6690 hc         1 X9M       0.052700
     47 H4          19.8290     7.3080     3.3380 hc         1 X9M       0.052700
     48 H5          20.3070     8.6580     9.3340 ha         1 X9M       0.123000
     49 H6          20.4890    10.6290    10.7400 ha         1 X9M       0.117500
     50 H7          23.7460    12.0850     8.2720 ha         1 X9M       0.117500
     51 H8          21.4290    13.7960    12.2710 hc         1 X9M       0.037144
     52 H9          20.2520    12.8800    11.3210 hc         1 X9M       0.037144
     53 H10         21.4220    12.0290    12.3620 hc         1 X9M       0.037144
     54 H11         23.8600    13.7420    11.7410 hc         1 X9M       0.037144
     55 H12         23.9280    11.9690    11.6950 hc         1 X9M       0.037144
     56 H13         24.4920    12.9200    10.3080 hc         1 X9M       0.037144
     57 H14         22.1360    14.9930    10.2070 hc         1 X9M       0.037144
     58 H15         22.8080    14.1430     8.8090 hc         1 X9M       0.037144
     59 H16         21.0710    14.0430     9.1530 hc         1 X9M       0.037144
     60 H17         19.3380     4.3360     3.9560 ha         1 X9M       0.134000
     61 H18         22.6450     5.9410     0.6020 hn         1 X9M       0.364000
     62 H19         20.6130     5.1880    -3.6930 ha         1 X9M       0.129000
     63 H20         21.9220     5.8290    -5.6650 ha         1 X9M       0.128000
     64 H21         25.1580     7.1310    -3.1050 ha         1 X9M       0.128000
     65 H22         23.8650     6.4740    -1.1270 ha         1 X9M       0.129000
     66 H23         25.1330     4.7370     3.8080 ha         1 X9M       0.120000
     67 H24         24.8360     6.5160     5.5100 ha         1 X9M       0.117000
     68 H25         23.3540     8.5660     6.0020 hn         1 X9M       0.155000
     69 H26         23.5640    10.1130     6.8640 ha         1 X9M       0.123000
     70 H27         17.5500     3.5970     2.3700 h4         1 X9M       0.025100
     71 H29         25.1980     6.5620    -8.3190 h1         1 X9M       0.062200
     72 H30         25.2750     8.3170    -8.1070 h1         1 X9M       0.062200
     73 H31         23.1600     6.7270    -9.6760 h1         1 X9M       0.052450
     74 H32         24.3520     7.8780   -10.3250 h1         1 X9M       0.052450
     75 H33         21.1670     9.3270    -8.0940 h1         1 X9M       0.052450
     76 H34         21.3000     7.5730    -8.3670 h1         1 X9M       0.052450
     77 H35         23.0910     9.3270    -6.5870 h1         1 X9M       0.062200
     78 H36         21.9660     8.0890    -6.0460 h1         1 X9M       0.062200
@<TRIPOS>BOND
     1     1     2 1   
     2     1    15 ar  
     3     1    32 ar  
     4     2     3 ar  
     5     2     4 ar  
     6     3    23 ar  
     7     3    44 1   
     8     4     5 1   
     9     4    25 ar  
    10     5    45 1   
    11     5    46 1   
    12     5    47 1   
    13     6     7 1   
    14     6    26 1   
    15     6    27 2   
    16     7     8 ar  
    17     7    28 ar  
    18     8     9 ar  
    19     8    48 1   
    20     9    10 ar  
    21     9    49 1   
    22    10    11 ar  
    23    10    29 1   
    24    11    28 ar  
    25    11    50 1   
    26    12    29 1   
    27    12    51 1   
    28    12    52 1   
    29    12    53 1   
    30    13    29 1   
    31    13    54 1   
    32    13    55 1   
    33    13    56 1   
    34    14    29 1   
    35    14    57 1   
    36    14    58 1   
    37    14    59 1   
    38    15    30 ar  
    39    15    60 1   
    40    16    32 1   
    41    16    35 1   
    42    16    61 1   
    43    17    18 ar  
    44    17    22 ar  
    45    17    35 1   
    46    18    19 ar  
    47    18    62 1   
    48    19    20 ar  
    49    19    63 1   
    50    20    21 ar  
    51    20    36 1   
    52    21    22 ar  
    53    21    64 1   
    54    22    65 1   
    55    23    24 ar  
    56    23    66 1   
    57    24    25 ar  
    58    24    67 1   
    59    25    26 1   
    60    26    68 1   
    61    28    69 1   
    62    30    31 ar  
    63    30    70 1   
    64    31    33 ar  
    65    32    33 ar  
    66    33    34 1   
    67    34    35 2   
    68    36    37 1   
    69    36    38 2   
    70    37    39 1   
    71    37    43 1   
    72    39    40 1   
    73    39    71 1   
    74    39    72 1   
    75    40    41 1   
    76    40    73 1   
    77    40    74 1   
    78    41    42 1   
    79    42    43 1   
    80    42    75 1   
    81    42    76 1   
    82    43    77 1   
    83    43    78 1   
@<TRIPOS>SUBSTRUCTURE
     1 X9M         1 TEMP              0 ****  ****    0 ROOT
