@<TRIPOS>MOLECULE
X9M
   78    83     1     0     0
SMALL
bcc


@<TRIPOS>ATOM
      1 C1          20.7280     5.0170     2.4490 cp         1 X9M       0.004000
      2 C2          21.8420     5.4780     3.3060 cp         1 X9M      -0.045000
      3 C3          23.0560     4.7990     3.2220 ca         1 X9M      -0.126000
      4 C7          21.6910     6.5790     4.1600 ca         1 X9M      -0.033300
      5 C8          20.4220     7.3770     4.1820 c3         1 X9M      -0.051800
      6 C10         21.9070     8.0570     6.9350 c          1 X9M       0.684700
      7 C11         21.9900     9.2920     7.7640 ca         1 X9M      -0.161600
      8 C13         21.7230     9.2020     9.1260 ca         1 X9M      -0.088500
      9 C14         21.7840    10.3260     9.9360 ca         1 X9M      -0.137500
     10 C15         22.0860    11.5830     9.4140 ca         1 X9M      -0.037300
     11 C16         22.3300    11.6630     8.0400 ca         1 X9M      -0.137500
     12 C19         21.8960    12.5510    11.7490 c3         1 X9M      -0.083767
     13 C20         23.5230    13.4960    10.1320 c3         1 X9M      -0.083767
     14 C21         21.0640    13.8250     9.7870 c3         1 X9M      -0.083767
     15 C22         19.5210     4.5390     2.9440 ca         1 X9M      -0.221300
     16 N29         21.7770     5.3890     0.1750 na         1 X9M      -0.250300
     17 C30         22.0300     5.4600    -2.2930 ca         1 X9M      -0.099900
     18 C31         21.3620     5.4490    -3.5180 ca         1 X9M      -0.107000
     19 C32         22.0380     5.7410    -4.6890 ca         1 X9M      -0.098000
     20 C33         23.4000     6.0320    -4.6630 ca         1 X9M      -0.130600
     21 C34         24.0750     6.0120    -3.4470 ca         1 X9M      -0.098000
     22 C35         23.3960     5.7450    -2.2720 ca         1 X9M      -0.107000
     23 C4          24.1350     5.1890     3.9970 ca         1 X9M      -0.122000
     24 C5          23.9920     6.2520     4.8710 ca         1 X9M      -0.142000
     25 C6          22.7850     6.9370     4.9570 ca         1 X9M       0.046600
     26 N9          22.7090     8.0370     5.8380 ns         1 X9M      -0.491100
     27 O12         21.1740     7.1300     7.2300 o          1 X9M      -0.575100
     28 C17         22.2900    10.5430     7.2280 ca         1 X9M      -0.088500
     29 C18         22.1410    12.8430    10.2690 c3         1 X9M      -0.004700
     30 C23         18.5180     4.0900     2.0790 ca         1 X9M       0.388200
     31 N24         18.6080     4.0830     0.7570 nb         1 X9M      -0.603000
     32 C25         20.8160     5.0060     1.0640 ca         1 X9M      -0.186500
     33 C26         19.7510     4.5450     0.2670 ca         1 X9M       0.533300
     34 N27         20.0760     4.6540    -1.0530 nc         1 X9M      -0.633700
     35 C28         21.2830     5.1620    -1.0740 cd         1 X9M       0.474400
     36 C36         24.1810     6.2520    -5.9190 c          1 X9M       0.679700
     37 N37         23.7200     7.1620    -6.7970 n          1 X9M      -0.476800
     38 O38         25.1920     5.5950    -6.1280 o          1 X9M      -0.588100
     39 C39         24.4220     7.3170    -8.0650 c6         1 X9M       0.066000
     40 C40         23.6260     8.2310    -8.9760 c6         1 X9M       0.120400
     41 O41         23.4290     9.5150    -8.4260 os         1 X9M      -0.405600
     42 C42         23.1990     9.5230    -7.0310 c6         1 X9M       0.120400
     43 C43         22.7250     8.1830    -6.4960 c6         1 X9M       0.066000
     44 H1          23.1500     3.9530     2.5510 ha         1 X9M       0.139000
     45 H2          19.7070     6.9760     4.9020 hc         1 X9M       0.052700
     46 H3          20.6130     8.4130     4.4570 hc         1 X9M       0.052700
     47 H4          19.9360     7.3760     3.2080 hc         1 X9M       0.052700
     48 H5          21.4770     8.2440     9.5660 ha         1 X9M       0.141000
     49 H6          21.5870    10.2040    10.9920 ha         1 X9M       0.135500
     50 H7          22.5520    12.6200     7.5830 ha         1 X9M       0.135500
     51 H8          21.9500    13.4810    12.3170 hc         1 X9M       0.037144
     52 H9          20.9090    12.1200    11.9270 hc         1 X9M       0.037144
     53 H10         22.6430    11.8710    12.1630 hc         1 X9M       0.037144
     54 H11         23.5740    14.3930    10.7520 hc         1 X9M       0.037144
     55 H12         24.3140    12.8180    10.4570 hc         1 X9M       0.037144
     56 H13         23.7370    13.7950     9.1050 hc         1 X9M       0.037144
     57 H14         21.0900    14.7360    10.3890 hc         1 X9M       0.037144
     58 H15         21.2110    14.1160     8.7460 hc         1 X9M       0.037144
     59 H16         20.0670    13.3920     9.8780 hc         1 X9M       0.037144
     60 H17         19.3510     4.4990     4.0120 ha         1 X9M       0.152000
     61 H18         22.6520     5.8340     0.4060 hn         1 X9M       0.313700
     62 H19         20.3070     5.2170    -3.5520 ha         1 X9M       0.147000
     63 H20         21.4970     5.7300    -5.6260 ha         1 X9M       0.146000
     64 H21         25.1370     6.2140    -3.4110 ha         1 X9M       0.146000
     65 H22         23.9560     5.7450    -1.3460 ha         1 X9M       0.147000
     66 H23         25.0750     4.6590     3.9320 ha         1 X9M       0.138000
     67 H24         24.8200     6.5580     5.4990 ha         1 X9M       0.135000
     68 H25         23.4660     8.7030     5.7920 hn         1 X9M       0.321500
     69 H26         22.4680    10.6650     6.1670 ha         1 X9M       0.141000
     70 H27         17.5920     3.7140     2.5000 h4         1 X9M       0.025100
     71 H29         24.5360     6.3470    -8.5510 h1         1 X9M       0.062200
     72 H30         25.4270     7.7200    -7.9050 h1         1 X9M       0.062200
     73 H31         22.6680     7.7560    -9.2210 h1         1 X9M       0.052450
     74 H32         24.1710     8.3560    -9.9130 h1         1 X9M       0.052450
     75 H33         24.1130     9.8120    -6.4980 h1         1 X9M       0.052450
     76 H34         22.4400    10.2770    -6.8120 h1         1 X9M       0.052450
     77 H35         22.5920     8.2780    -5.4200 h1         1 X9M       0.062200
     78 H36         21.7520     7.9230    -6.9230 h1         1 X9M       0.062200
@<TRIPOS>BOND
     1     1     2 1   
     2     1    15 ar  
     3     1    32 ar  
     4     2     3 ar  
     5     2     4 ar  
     6     3    23 ar  
     7     3    44 1   
     8     4     5 1   
     9     4    25 ar  
    10     5    45 1   
    11     5    46 1   
    12     5    47 1   
    13     6     7 1   
    14     6    26 1   
    15     6    27 2   
    16     7     8 ar  
    17     7    28 ar  
    18     8     9 ar  
    19     8    48 1   
    20     9    10 ar  
    21     9    49 1   
    22    10    11 ar  
    23    10    29 1   
    24    11    28 ar  
    25    11    50 1   
    26    12    29 1   
    27    12    51 1   
    28    12    52 1   
    29    12    53 1   
    30    13    29 1   
    31    13    54 1   
    32    13    55 1   
    33    13    56 1   
    34    14    29 1   
    35    14    57 1   
    36    14    58 1   
    37    14    59 1   
    38    15    30 ar  
    39    15    60 1   
    40    16    32 1   
    41    16    35 1   
    42    16    61 1   
    43    17    18 ar  
    44    17    22 ar  
    45    17    35 1   
    46    18    19 ar  
    47    18    62 1   
    48    19    20 ar  
    49    19    63 1   
    50    20    21 ar  
    51    20    36 1   
    52    21    22 ar  
    53    21    64 1   
    54    22    65 1   
    55    23    24 ar  
    56    23    66 1   
    57    24    25 ar  
    58    24    67 1   
    59    25    26 1   
    60    26    68 1   
    61    28    69 1   
    62    30    31 ar  
    63    30    70 1   
    64    31    33 ar  
    65    32    33 ar  
    66    33    34 1   
    67    34    35 2   
    68    36    37 1   
    69    36    38 2   
    70    37    39 1   
    71    37    43 1   
    72    39    40 1   
    73    39    71 1   
    74    39    72 1   
    75    40    41 1   
    76    40    73 1   
    77    40    74 1   
    78    41    42 1   
    79    42    43 1   
    80    42    75 1   
    81    42    76 1   
    82    43    77 1   
    83    43    78 1   
@<TRIPOS>SUBSTRUCTURE
     1 X9M         1 TEMP              0 ****  ****    0 ROOT
