@<TRIPOS>MOLECULE
X9N
   43    44     1     0     0
SMALL
No Charge or Current Charge


@<TRIPOS>ATOM
      1 N1         -13.1230   -10.9120    -4.1110 n3         1 X9N      -0.736600
      2 C7          -9.4990   -12.6330    -5.9250 ca         1 X9N       0.300000
      3 C8         -10.9020   -12.1400    -3.8770 c6         1 X9N       0.199300
      4 C9         -12.4140   -12.0730    -3.4830 c6         1 X9N       0.165300
      5 C1          -5.2540   -15.5590    -7.4250 c3         1 X9N      -0.171400
      6 C5          -7.4330   -12.2840    -7.1920 ca         1 X9N      -0.034000
      7 C6          -8.6210   -11.7870    -6.6290 ca         1 X9N      -0.175000
      8 C4          -7.0820   -13.6470    -7.0680 ca         1 X9N      -0.192600
      9 C3          -7.0560   -16.8050    -8.8340 c3         1 X9N      -0.090100
     10 C2          -5.5560   -16.5420    -8.5850 c3         1 X9N      -0.063400
     11 C14         -9.1540   -14.0020    -5.8020 ca         1 X9N       0.103000
     12 C15         -7.9660   -14.5010    -6.3640 ca         1 X9N      -0.082000
     13 C           -5.7870   -14.1390    -7.6990 c          1 X9N       0.583700
     14 O           -5.1450   -13.4000    -8.4360 o          1 X9N      -0.533100
     15 N          -10.6950   -12.1080    -5.3610 nh         1 X9N      -0.792400
     16 C13        -11.4440   -10.9940    -6.0270 c6         1 X9N       0.199300
     17 C12        -12.9470   -10.9430    -5.5980 c6         1 X9N       0.165300
     18 C10        -14.5280   -10.7350    -3.6620 c3         1 X9N       0.172800
     19 C11        -15.4970   -11.8810    -4.0290 c3         1 X9N      -0.129100
     20 H2         -10.4710   -13.0530    -3.4410 h1         1 X9N       0.050200
     21 H3         -10.3820   -11.2880    -3.4160 h1         1 X9N       0.050200
     22 H4         -12.4870   -12.0190    -2.3870 h1         1 X9N       0.042950
     23 H5         -12.8860   -13.0180    -3.7900 h1         1 X9N       0.042950
     24 H6          -5.6750   -15.9700    -6.5030 hc         1 X9N       0.060700
     25 H7          -4.1640   -15.5000    -7.3190 hc         1 X9N       0.060700
     26 H8          -6.7810   -11.5940    -7.7250 ha         1 X9N       0.136000
     27 H9          -8.8480   -10.7310    -6.7350 ha         1 X9N       0.121000
     28 H10         -7.1830   -17.5040    -9.6700 hc         1 X9N       0.035033
     29 H11         -7.5260   -17.2490    -7.9490 hc         1 X9N       0.035033
     30 H12         -7.5840   -15.8780    -9.0860 hc         1 X9N       0.035033
     31 H13         -5.0640   -17.5000    -8.3730 hc         1 X9N       0.046700
     32 H14         -5.1040   -16.1590    -9.5090 hc         1 X9N       0.046700
     33 H15         -7.7630   -15.5600    -6.2480 ha         1 X9N       0.130000
     34 H16        -11.4000   -11.1050    -7.1200 h1         1 X9N       0.050200
     35 H17        -10.9770   -10.0300    -5.7760 h1         1 X9N       0.050200
     36 H18        -13.4120   -10.0590    -6.0570 h1         1 X9N       0.042950
     37 H19        -13.4490   -11.8250    -6.0210 h1         1 X9N       0.042950
     38 H20        -14.5480   -10.6120    -2.5700 h1         1 X9N       0.050700
     39 H21        -14.9290    -9.8030    -4.0840 h1         1 X9N       0.050700
     40 H22        -16.5020   -11.6520    -3.6540 hc         1 X9N       0.038033
     41 H23        -15.5680   -12.0100    -5.1150 hc         1 X9N       0.038033
     42 H24        -15.1810   -12.8290    -3.5810 hc         1 X9N       0.038033
     43 F           -9.9730   -14.8700    -5.1570 f          1 X9N      -0.184000
@<TRIPOS>BOND
     1     1     4 1   
     2     1    17 1   
     3     1    18 1   
     4     2     7 ar  
     5     2    11 ar  
     6     2    15 1   
     7     3     4 1   
     8     3    15 1   
     9     3    20 1   
    10     3    21 1   
    11     4    22 1   
    12     4    23 1   
    13     5    10 1   
    14     5    13 1   
    15     5    24 1   
    16     5    25 1   
    17     6     7 ar  
    18     6     8 ar  
    19     6    26 1   
    20     7    27 1   
    21     8    12 ar  
    22     8    13 1   
    23     9    10 1   
    24     9    28 1   
    25     9    29 1   
    26     9    30 1   
    27    10    31 1   
    28    10    32 1   
    29    11    12 ar  
    30    11    43 1   
    31    12    33 1   
    32    13    14 2   
    33    15    16 1   
    34    16    17 1   
    35    16    34 1   
    36    16    35 1   
    37    17    36 1   
    38    17    37 1   
    39    18    19 1   
    40    18    38 1   
    41    18    39 1   
    42    19    40 1   
    43    19    41 1   
    44    19    42 1   
@<TRIPOS>SUBSTRUCTURE
     1 X9N         1 TEMP              0 ****  ****    0 ROOT
