@<TRIPOS>MOLECULE
X9N
   43    44     1     0     0
SMALL
abcg2


@<TRIPOS>ATOM
      1 N1         -13.0790   -10.8590    -3.8970 n3         1 X9N      -0.736600
      2 C7          -9.8840   -12.7210    -5.9430 ca         1 X9N       0.300000
      3 C8         -10.9950   -12.1260    -3.8350 c6         1 X9N       0.199300
      4 C9         -12.4110   -12.0080    -3.3010 c6         1 X9N       0.165300
      5 C1          -5.8880   -15.7260    -7.5570 c3         1 X9N      -0.171400
      6 C5          -8.1550   -12.6040    -7.6570 ca         1 X9N      -0.034000
      7 C6          -9.2480   -12.0580    -7.0100 ca         1 X9N      -0.175000
      8 C4          -7.6250   -13.8410    -7.2780 ca         1 X9N      -0.192600
      9 C3          -5.3520   -16.8100    -9.8010 c3         1 X9N      -0.090100
     10 C2          -4.8070   -16.2920    -8.4710 c3         1 X9N      -0.063400
     11 C14         -9.3370   -13.9720    -5.5980 ca         1 X9N       0.103000
     12 C15         -8.2480   -14.5240    -6.2240 ca         1 X9N      -0.082000
     13 C           -6.4400   -14.3810    -7.9900 c          1 X9N       0.583700
     14 O           -5.9090   -13.7400    -8.8880 o          1 X9N      -0.533100
     15 N          -11.0060   -12.2210    -5.3020 nh         1 X9N      -0.792400
     16 C13        -11.7000   -11.0890    -5.9100 c6         1 X9N       0.199300
     17 C12        -13.1100   -10.9840    -5.3470 c6         1 X9N       0.165300
     18 C10        -14.3770   -10.5470    -3.2980 c3         1 X9N       0.172800
     19 C11        -15.4870   -11.5910    -3.4650 c3         1 X9N      -0.129100
     20 H2         -10.5150   -13.0010    -3.4100 h1         1 X9N       0.050200
     21 H3         -10.4180   -11.2390    -3.5380 h1         1 X9N       0.050200
     22 H4         -12.3730   -11.8720    -2.2180 h1         1 X9N       0.042950
     23 H5         -12.9440   -12.9510    -3.5030 h1         1 X9N       0.042950
     24 H6          -6.7150   -16.4370    -7.4660 hc         1 X9N       0.060700
     25 H7          -5.5020   -15.5950    -6.5400 hc         1 X9N       0.060700
     26 H8          -7.6860   -12.0590    -8.4640 ha         1 X9N       0.136000
     27 H9          -9.6120   -11.0900    -7.3200 ha         1 X9N       0.121000
     28 H10         -4.5500   -17.2110   -10.4240 hc         1 X9N       0.035033
     29 H11         -6.0790   -17.6100    -9.6360 hc         1 X9N       0.035033
     30 H12         -5.8490   -16.0170   -10.3620 hc         1 X9N       0.035033
     31 H13         -4.3090   -17.1100    -7.9430 hc         1 X9N       0.046700
     32 H14         -4.0480   -15.5280    -8.6520 hc         1 X9N       0.046700
     33 H15         -7.9120   -15.4950    -5.8920 ha         1 X9N       0.130000
     34 H16        -11.7610   -11.2450    -6.9860 h1         1 X9N       0.050200
     35 H17        -11.1590   -10.1500    -5.7260 h1         1 X9N       0.050200
     36 H18        -13.5950   -10.1010    -5.7680 h1         1 X9N       0.042950
     37 H19        -13.6790   -11.8680    -5.6760 h1         1 X9N       0.042950
     38 H20        -14.2060   -10.3730    -2.2320 h1         1 X9N       0.050700
     39 H21        -14.7110    -9.5980    -3.7280 h1         1 X9N       0.050700
     40 H22        -16.3950   -11.2390    -2.9720 hc         1 X9N       0.038033
     41 H23        -15.7240   -11.7630    -4.5160 hc         1 X9N       0.038033
     42 H24        -15.2140   -12.5480    -3.0170 hc         1 X9N       0.038033
     43 F           -9.9460   -14.7080    -4.6300 f          1 X9N      -0.184000
@<TRIPOS>BOND
     1     1     4 1   
     2     1    17 1   
     3     1    18 1   
     4     2     7 ar  
     5     2    11 ar  
     6     2    15 1   
     7     3     4 1   
     8     3    15 1   
     9     3    20 1   
    10     3    21 1   
    11     4    22 1   
    12     4    23 1   
    13     5    10 1   
    14     5    13 1   
    15     5    24 1   
    16     5    25 1   
    17     6     7 ar  
    18     6     8 ar  
    19     6    26 1   
    20     7    27 1   
    21     8    12 ar  
    22     8    13 1   
    23     9    10 1   
    24     9    28 1   
    25     9    29 1   
    26     9    30 1   
    27    10    31 1   
    28    10    32 1   
    29    11    12 ar  
    30    11    43 1   
    31    12    33 1   
    32    13    14 2   
    33    15    16 1   
    34    16    17 1   
    35    16    34 1   
    36    16    35 1   
    37    17    36 1   
    38    17    37 1   
    39    18    19 1   
    40    18    38 1   
    41    18    39 1   
    42    19    40 1   
    43    19    41 1   
    44    19    42 1   
@<TRIPOS>SUBSTRUCTURE
     1 X9N         1 TEMP              0 ****  ****    0 ROOT
