@<TRIPOS>MOLECULE
X9O
   48    50     1     0     0
SMALL
No Charge or Current Charge


@<TRIPOS>ATOM
      1 C1         -20.1310     4.9990    -2.9980 ca         1 X9O      -0.091000
      2 C2         -20.8010     3.8620    -3.5060 ca         1 X9O      -0.068000
      3 C3         -21.2280     2.8400    -2.6420 ca         1 X9O      -0.138000
      4 N4         -17.2970    15.1520    -6.1250 nv         1 X9O      -1.060000
      5 C5         -20.3430     4.0700    -0.7460 ca         1 X9O      -0.164000
      6 C6         -19.9080     5.0960    -1.6010 ca         1 X9O       0.258000
      7 C7         -19.1250     7.4750    -5.7900 ca         1 X9O      -0.197600
      8 C8         -18.8000     7.5940    -7.1600 ca         1 X9O      -0.036500
      9 C11        -16.5570    13.0580    -7.2010 ca         1 X9O       0.146000
     10 C10        -18.5030    10.0050    -6.9310 ca         1 X9O       0.320000
     11 C9         -18.4950     8.8460    -7.7210 ca         1 X9O      -0.171000
     12 C12        -16.4020    14.4500    -6.9130 ca         1 X9O       0.272000
     13 C15        -14.4540    13.1200    -8.4700 ca         1 X9O      -0.105300
     14 C16        -13.3990    12.3920    -9.2980 c3         1 X9O      -0.029800
     15 C19        -19.1400     8.6500    -4.9980 ca         1 X9O      -0.036500
     16 C18        -18.8330     9.8980    -5.5680 ca         1 X9O      -0.171000
     17 C17        -15.5610    12.4090    -7.9650 ca         1 X9O      -0.094000
     18 N          -19.7190     6.0660    -3.8520 ns         1 X9O      -0.166000
     19 C          -19.4500     6.1080    -5.2160 c          1 X9O       0.617700
     20 O          -19.4560     5.1080    -5.9260 o          1 X9O      -0.593100
     21 C13        -15.3050    15.1550    -7.4270 ca         1 X9O      -0.230000
     22 C14        -14.3390    14.5000    -8.2020 ca         1 X9O       0.141100
     23 C4         -20.9990     2.9420    -1.2620 ca         1 X9O      -0.082000
     24 N1         -19.2540     6.1720    -1.0500 nv         1 X9O      -1.075000
     25 N2         -18.1960    11.2430    -7.5350 nu         1 X9O      -0.701000
     26 N3         -17.6860    12.3420    -6.7200 nu         1 X9O      -0.654000
     27 O1         -13.2790    15.2120    -8.6840 oh         1 X9O      -0.538100
     28 H1         -21.0170     3.7660    -4.5660 ha         1 X9O       0.128000
     29 H2         -21.7440     1.9710    -3.0430 ha         1 X9O       0.117000
     30 H3         -17.8070    14.6470    -5.4040 hn         1 X9O       0.441500
     31 H4         -17.0790    16.1200    -5.8980 hn         1 X9O       0.441500
     32 H5         -20.1700     4.1430     0.3240 ha         1 X9O       0.111000
     33 H6         -18.7820     6.7130    -7.8000 ha         1 X9O       0.123500
     34 H7         -18.2490     8.9110    -8.7770 ha         1 X9O       0.126000
     35 H8         -12.4120    12.4630    -8.8270 hc         1 X9O       0.043700
     36 H9         -13.6320    11.3260    -9.4140 hc         1 X9O       0.043700
     37 H10        -13.3220    12.8220   -10.3040 hc         1 X9O       0.043700
     38 H11        -19.3910     8.6190    -3.9400 ha         1 X9O       0.123500
     39 H12        -18.8560    10.7840    -4.9410 ha         1 X9O       0.126000
     40 H13        -15.6400    11.3440    -8.1650 ha         1 X9O       0.118000
     41 H14        -19.6390     6.9570    -3.3840 hn         1 X9O       0.157000
     42 H15        -15.2000    16.2150    -7.2130 ha         1 X9O       0.115000
     43 H16        -21.3330     2.1510    -0.5930 ha         1 X9O       0.112000
     44 H17        -19.0020     6.1390    -0.0640 hn         1 X9O       0.445500
     45 H18        -18.6760     6.7640    -1.6410 hn         1 X9O       0.445500
     46 H19        -17.8000    11.1610    -8.4810 hn         1 X9O       0.457000
     47 H20        -18.4170    13.0040    -6.4200 hn         1 X9O       0.474000
     48 H21        -13.3740    16.1440    -8.3930 ho         1 X9O       0.459000
@<TRIPOS>BOND
     1     1     2 ar  
     2     1     6 ar  
     3     1    18 1   
     4     2     3 ar  
     5     2    28 1   
     6     3    23 ar  
     7     3    29 1   
     8     4    12 1   
     9     4    30 1   
    10     4    31 1   
    11     5     6 ar  
    12     5    23 ar  
    13     5    32 1   
    14     6    24 1   
    15     7     8 ar  
    16     7    15 ar  
    17     7    19 1   
    18     8    11 ar  
    19     8    33 1   
    20     9    12 ar  
    21     9    17 ar  
    22     9    26 1   
    23    10    11 ar  
    24    10    16 ar  
    25    10    25 1   
    26    11    34 1   
    27    12    21 ar  
    28    13    14 1   
    29    13    17 ar  
    30    13    22 ar  
    31    14    35 1   
    32    14    36 1   
    33    14    37 1   
    34    15    16 ar  
    35    15    38 1   
    36    16    39 1   
    37    17    40 1   
    38    18    19 1   
    39    18    41 1   
    40    19    20 2   
    41    21    22 ar  
    42    21    42 1   
    43    22    27 1   
    44    23    43 1   
    45    24    44 1   
    46    24    45 1   
    47    25    26 1   
    48    25    46 1   
    49    26    47 1   
    50    27    48 1   
@<TRIPOS>SUBSTRUCTURE
     1 X9O         1 TEMP              0 ****  ****    0 ROOT
