@<TRIPOS>MOLECULE
X9O
   48    50     1     0     0
SMALL
abcg2


@<TRIPOS>ATOM
      1 C1         -19.6690     5.5930    -3.0990 ca         1 X9O      -0.091000
      2 C2         -20.8860     4.9200    -3.0720 ca         1 X9O      -0.068000
      3 C3         -21.1080     3.8880    -2.1700 ca         1 X9O      -0.138000
      4 N4         -17.9230    15.1470    -7.0150 nv         1 X9O      -1.060000
      5 C5         -18.8840     4.2060    -1.2900 ca         1 X9O      -0.164000
      6 C6         -18.6400     5.2350    -2.2080 ca         1 X9O       0.258000
      7 C7         -19.3840     7.8790    -6.0860 ca         1 X9O      -0.197600
      8 C8         -19.1040     7.8080    -7.4560 ca         1 X9O      -0.036500
      9 C11        -17.1570    12.8930    -7.4880 ca         1 X9O       0.146000
     10 C10        -18.9400    10.2140    -7.5980 ca         1 X9O       0.320000
     11 C9         -18.8750     8.9470    -8.2000 ca         1 X9O      -0.171000
     12 C12        -16.8820    14.2090    -7.0760 ca         1 X9O       0.272000
     13 C15        -14.7940    12.3150    -7.2840 ca         1 X9O      -0.105300
     14 C16        -13.6850    11.3040    -7.3800 c3         1 X9O      -0.029800
     15 C19        -19.4420     9.1450    -5.4920 ca         1 X9O      -0.036500
     16 C18        -19.2270    10.2970    -6.2300 ca         1 X9O      -0.171000
     17 C17        -16.1180    11.9740    -7.5710 ca         1 X9O      -0.094000
     18 N          -19.4440     6.6650    -3.9950 ns         1 X9O      -0.166000
     19 C          -19.6210     6.6110    -5.3480 c          1 X9O       0.617700
     20 O          -19.9430     5.5720    -5.9260 o          1 X9O      -0.593100
     21 C13        -15.5640    14.5630    -6.8000 ca         1 X9O      -0.230000
     22 C14        -14.5350    13.6320    -6.9080 ca         1 X9O       0.141100
     23 C4         -20.1000     3.5390    -1.2730 ca         1 X9O      -0.082000
     24 N1         -17.4370     5.9310    -2.2070 nv         1 X9O      -1.075000
     25 N2         -18.7600    11.3400    -8.3820 nu         1 X9O      -0.701000
     26 N3         -18.5100    12.5580    -7.7540 nu         1 X9O      -0.654000
     27 O1         -13.2300    13.9700    -6.6360 oh         1 X9O      -0.538100
     28 H1         -21.6600     5.2200    -3.7660 ha         1 X9O       0.128000
     29 H2         -22.0580     3.3710    -2.1590 ha         1 X9O       0.117000
     30 H3         -18.7800    14.7830    -6.6190 hn         1 X9O       0.441500
     31 H4         -17.6630    16.0050    -6.5480 hn         1 X9O       0.441500
     32 H5         -18.0980     3.9270    -0.5980 ha         1 X9O       0.111000
     33 H6         -19.0560     6.8370    -7.9290 ha         1 X9O       0.123500
     34 H7         -18.6420     8.8710    -9.2560 ha         1 X9O       0.126000
     35 H8         -13.1820    11.1670    -6.4190 hc         1 X9O       0.043700
     36 H9         -14.0750    10.3380    -7.7000 hc         1 X9O       0.043700
     37 H10        -12.9190    11.6160    -8.0950 hc         1 X9O       0.043700
     38 H11        -19.6860     9.2530    -4.4430 ha         1 X9O       0.123500
     39 H12        -19.2830    11.2670    -5.7580 ha         1 X9O       0.126000
     40 H13        -16.3320    10.9570    -7.8700 ha         1 X9O       0.118000
     41 H14        -19.0400     7.5050    -3.6100 hn         1 X9O       0.157000
     42 H15        -15.3420    15.5780    -6.4860 ha         1 X9O       0.115000
     43 H16        -20.2590     2.7400    -0.5590 ha         1 X9O       0.112000
     44 H17        -16.6810     5.4620    -1.7290 hn         1 X9O       0.445500
     45 H18        -17.1450     6.2880    -3.1060 hn         1 X9O       0.445500
     46 H19        -18.2490    11.1880    -9.2460 hn         1 X9O       0.457000
     47 H20        -19.0090    13.3000    -8.2290 hn         1 X9O       0.474000
     48 H21        -13.1810    14.9000    -6.3800 ho         1 X9O       0.459000
@<TRIPOS>BOND
     1     1     2 ar  
     2     1     6 ar  
     3     1    18 1   
     4     2     3 ar  
     5     2    28 1   
     6     3    23 ar  
     7     3    29 1   
     8     4    12 1   
     9     4    30 1   
    10     4    31 1   
    11     5     6 ar  
    12     5    23 ar  
    13     5    32 1   
    14     6    24 1   
    15     7     8 ar  
    16     7    15 ar  
    17     7    19 1   
    18     8    11 ar  
    19     8    33 1   
    20     9    12 ar  
    21     9    17 ar  
    22     9    26 1   
    23    10    11 ar  
    24    10    16 ar  
    25    10    25 1   
    26    11    34 1   
    27    12    21 ar  
    28    13    14 1   
    29    13    17 ar  
    30    13    22 ar  
    31    14    35 1   
    32    14    36 1   
    33    14    37 1   
    34    15    16 ar  
    35    15    38 1   
    36    16    39 1   
    37    17    40 1   
    38    18    19 1   
    39    18    41 1   
    40    19    20 2   
    41    21    22 ar  
    42    21    42 1   
    43    22    27 1   
    44    23    43 1   
    45    24    44 1   
    46    24    45 1   
    47    25    26 1   
    48    25    46 1   
    49    26    47 1   
    50    27    48 1   
@<TRIPOS>SUBSTRUCTURE
     1 X9O         1 TEMP              0 ****  ****    0 ROOT
