@<TRIPOS>MOLECULE
X9P
   74    79     1     0     0
SMALL
No Charge or Current Charge


@<TRIPOS>ATOM
      1 C2          22.5500     8.6880     7.7270 c          1 X9P       0.534600
      2 C4          23.3580     9.2490     5.3630 c6         1 X9P       0.173000
      3 C6          24.8120     8.7190     5.3270 c6         1 X9P      -0.092400
      4 C7          25.1550     8.1330     3.9440 c6         1 X9P      -0.070400
      5 C8          24.2280     6.9410     3.6270 c6         1 X9P      -0.034100
      6 C11         20.3950     6.7320     3.3130 cp         1 X9P      -0.026000
      7 C12         20.0000     7.8180     4.1250 ca         1 X9P      -0.093000
      8 C15         19.3740     5.8920     2.6160 cp         1 X9P       0.004000
      9 C16         18.1860     5.4390     3.2420 ca         1 X9P      -0.148000
     10 C17         17.2610     4.6410     2.5230 ca         1 X9P       0.322900
     11 C19         18.5440     4.7120     0.6200 ca         1 X9P       0.476000
     12 C21         20.1340     5.1870    -0.7760 cc         1 X9P       0.533400
     13 N22         20.4620     5.8010     0.4250 na         1 X9P      -0.312600
     14 C23         19.4640     5.4680     1.2780 ca         1 X9P      -0.124200
     15 C24         20.9710     5.3030    -1.9340 cc         1 X9P      -0.258900
     16 C30         23.4860     6.6020    -5.6050 c3         1 X9P      -0.103100
     17 C31         22.1710     5.9520    -2.0720 cd         1 X9P      -0.112300
     18 C32         23.0090     6.7160    -1.0650 c3         1 X9P      -0.038800
     19 C33         22.1300     9.3700     9.0000 cc         1 X9P       0.415500
     20 C35         21.6510    10.7360    10.5470 cd         1 X9P       0.559300
     21 C38         21.4590    12.0610    11.2930 c3         1 X9P      -0.072300
     22 C39         22.8180    12.8080    11.3830 c3         1 X9P      -0.084767
     23 C40         20.4400    12.9470    10.5240 c3         1 X9P      -0.084767
     24 C41         20.9230    11.8430    12.7400 c3         1 X9P      -0.084767
     25 N34         22.1180    10.6760     9.2520 nd         1 X9P      -0.723000
     26 N36         21.3840     9.5540    11.0830 nc         1 X9P      -0.362300
     27 O37         21.7000     8.6310    10.0610 os         1 X9P      -0.041700
     28 O1          22.5440     7.4730     7.5530 o          1 X9P      -0.538100
     29 N3          22.9670     9.5750     6.7440 ns         1 X9P      -0.489900
     30 C9          22.7440     7.2670     3.8300 ca         1 X9P      -0.055300
     31 C10         21.7800     6.4680     3.1870 ca         1 X9P      -0.113000
     32 C14         22.3300     8.3440     4.6510 ca         1 X9P      -0.084300
     33 C13         20.9520     8.6170     4.7780 ca         1 X9P      -0.093000
     34 N18         17.4290     4.2730     1.2230 nb         1 X9P      -0.604000
     35 N20         18.9650     4.5170    -0.6910 nd         1 X9P      -0.642700
     36 C25         20.6700     4.7260    -3.1700 cc         1 X9P       0.297900
     37 N26         21.5750     4.9580    -4.0960 nd         1 X9P      -0.521800
     38 N27         22.5140     5.7400    -3.4240 na         1 X9P       0.136800
     39 C28         23.7330     6.2280    -4.1230 c3         1 X9P       0.102300
     40 C29         24.9030     5.2310    -3.9770 c3         1 X9P      -0.103100
     41 H1          23.3550    10.1980     4.8070 h1         1 X9P       0.059700
     42 H2          24.9470     7.9400     6.0890 hc         1 X9P       0.059700
     43 H3          25.5100     9.5280     5.5800 hc         1 X9P       0.059700
     44 H4          26.2040     7.8080     3.9190 hc         1 X9P       0.045200
     45 H5          25.0460     8.9080     3.1720 hc         1 X9P       0.045200
     46 H6          24.4950     6.0900     4.2680 hc         1 X9P       0.053200
     47 H7          24.4030     6.6120     2.5930 hc         1 X9P       0.053200
     48 H8          18.9440     8.0520     4.2370 ha         1 X9P       0.122000
     49 H9          17.9810     5.6880     4.2800 ha         1 X9P       0.126000
     50 H10         16.3520     4.2850     3.0070 h4         1 X9P       0.022100
     51 H11         21.2550     6.3990     0.5970 hn         1 X9P       0.359000
     52 H12         22.6640     7.3240    -5.6880 hc         1 X9P       0.051533
     53 H13         24.3830     7.0590    -6.0410 hc         1 X9P       0.051533
     54 H14         23.2310     5.7170    -6.2010 hc         1 X9P       0.051533
     55 H15         22.5140     7.6470    -0.7670 hc         1 X9P       0.053367
     56 H16         23.1860     6.1160    -0.1650 hc         1 X9P       0.053367
     57 H17         23.9970     6.9830    -1.4550 hc         1 X9P       0.053367
     58 H18         23.5630    12.1990    11.9100 hc         1 X9P       0.044256
     59 H19         23.2130    13.0330    10.3840 hc         1 X9P       0.044256
     60 H20         22.7130    13.7570    11.9220 hc         1 X9P       0.044256
     61 H21         20.2750    13.9000    11.0420 hc         1 X9P       0.044256
     62 H22         20.7980    13.1730     9.5120 hc         1 X9P       0.044256
     63 H23         19.4720    12.4380    10.4330 hc         1 X9P       0.044256
     64 H24         21.6200    11.2360    13.3320 hc         1 X9P       0.044256
     65 H25         20.7920    12.8010    13.2590 hc         1 X9P       0.044256
     66 H26         19.9510    11.3340    12.7300 hc         1 X9P       0.044256
     67 H27         22.9400    10.5540     7.0120 hn         1 X9P       0.344500
     68 H28         22.1090     5.6220     2.5890 ha         1 X9P       0.113000
     69 H29         20.6140     9.4550     5.3830 ha         1 X9P       0.115000
     70 H31         19.8010     4.1330    -3.4260 h4         1 X9P       0.059100
     71 H32         24.0330     7.1590    -3.6290 h1         1 X9P       0.053700
     72 H33         25.1120     5.0330    -2.9190 hc         1 X9P       0.051533
     73 H34         24.6650     4.2780    -4.4640 hc         1 X9P       0.051533
     74 H35         25.8150     5.6340    -4.4330 hc         1 X9P       0.051533
@<TRIPOS>BOND
     1     1    19 1   
     2     1    28 2   
     3     1    29 1   
     4     2     3 1   
     5     2    29 1   
     6     2    32 1   
     7     2    41 1   
     8     3     4 1   
     9     3    42 1   
    10     3    43 1   
    11     4     5 1   
    12     4    44 1   
    13     4    45 1   
    14     5    30 1   
    15     5    46 1   
    16     5    47 1   
    17     6     7 ar  
    18     6     8 1   
    19     6    31 ar  
    20     7    33 ar  
    21     7    48 1   
    22     8     9 ar  
    23     8    14 ar  
    24     9    10 ar  
    25     9    49 1   
    26    10    34 ar  
    27    10    50 1   
    28    11    14 ar  
    29    11    34 ar  
    30    11    35 1   
    31    12    13 1   
    32    12    15 1   
    33    12    35 2   
    34    13    14 1   
    35    13    51 1   
    36    15    17 2   
    37    15    36 1   
    38    16    39 1   
    39    16    52 1   
    40    16    53 1   
    41    16    54 1   
    42    17    18 1   
    43    17    38 1   
    44    18    55 1   
    45    18    56 1   
    46    18    57 1   
    47    19    25 2   
    48    19    27 1   
    49    20    21 1   
    50    20    25 1   
    51    20    26 2   
    52    21    22 1   
    53    21    23 1   
    54    21    24 1   
    55    22    58 1   
    56    22    59 1   
    57    22    60 1   
    58    23    61 1   
    59    23    62 1   
    60    23    63 1   
    61    24    64 1   
    62    24    65 1   
    63    24    66 1   
    64    26    27 1   
    65    29    67 1   
    66    30    31 ar  
    67    30    32 ar  
    68    31    68 1   
    69    32    33 ar  
    70    33    69 1   
    71    36    37 2   
    72    36    70 1   
    73    37    38 1   
    74    38    39 1   
    75    39    40 1   
    76    39    71 1   
    77    40    72 1   
    78    40    73 1   
    79    40    74 1   
@<TRIPOS>SUBSTRUCTURE
     1 X9P         1 TEMP              0 ****  ****    0 ROOT
