@<TRIPOS>MOLECULE
X9P
   74    79     1     0     0
SMALL
bcc


@<TRIPOS>ATOM
      1 C2          22.6920     8.8640     7.8170 c          1 X9P       0.601600
      2 C4          23.3790     9.3650     5.5080 c6         1 X9P       0.173000
      3 C6          24.8130     8.8400     5.5010 c6         1 X9P      -0.092400
      4 C7          25.1800     8.3620     4.1060 c6         1 X9P      -0.070400
      5 C8          24.3110     7.1750     3.7210 c6         1 X9P      -0.034100
      6 C11         20.5400     6.8420     3.4390 cp         1 X9P      -0.026000
      7 C12         20.1060     7.8340     4.3190 ca         1 X9P      -0.111000
      8 C15         19.5750     6.0100     2.7030 cp         1 X9P       0.004000
      9 C16         18.4250     5.4840     3.2890 ca         1 X9P      -0.231300
     10 C17         17.5460     4.6870     2.5540 ca         1 X9P       0.388200
     11 C19         18.7840     4.8720     0.6970 ca         1 X9P       0.541300
     12 C21         20.2630     5.3800    -0.7500 cc         1 X9P       0.533400
     13 N22         20.6520     5.9900     0.4050 na         1 X9P      -0.262300
     14 C23         19.7250     5.6800     1.3620 ca         1 X9P      -0.189500
     15 C24         20.9920     5.4840    -1.9900 cc         1 X9P      -0.324200
     16 C30         23.5140     6.8030    -5.5130 c3         1 X9P      -0.103100
     17 C31         22.3370     5.7550    -2.2200 cd         1 X9P      -0.061600
     18 C32         23.4620     5.9920    -1.2750 c3         1 X9P      -0.038800
     19 C33         22.2430     9.5200     9.0850 cc         1 X9P       0.459900
     20 C35         21.6270    10.7730    10.6170 cd         1 X9P       0.559300
     21 C38         21.2450    12.0250    11.3450 c3         1 X9P      -0.072300
     22 C39         22.4530    12.9690    11.3480 c3         1 X9P      -0.084767
     23 C40         20.0810    12.6830    10.5960 c3         1 X9P      -0.084767
     24 C41         20.8270    11.7110    12.7800 c3         1 X9P      -0.084767
     25 N34         22.0210    10.7670     9.3060 nd         1 X9P      -0.723000
     26 N36         21.6170     9.5870    11.1450 nc         1 X9P      -0.362300
     27 O37         22.0240     8.7580    10.1380 os         1 X9P      -0.086100
     28 O1          22.7910     7.6540     7.7530 o          1 X9P      -0.538100
     29 N3          22.9350     9.7390     6.8400 ns         1 X9P      -0.556900
     30 C9          22.8450     7.4390     3.9440 ca         1 X9P      -0.055300
     31 C10         21.9080     6.6600     3.2710 ca         1 X9P      -0.131000
     32 C14         22.3990     8.4350     4.8150 ca         1 X9P      -0.084300
     33 C13         21.0280     8.6190     4.9860 ca         1 X9P      -0.111000
     34 N18         17.7030     4.3670     1.2760 nb         1 X9P      -0.604000
     35 N20         19.1510     4.6980    -0.6070 nd         1 X9P      -0.642700
     36 C25         20.4440     5.2960    -3.2730 cc         1 X9P       0.363200
     37 N26         21.3540     5.4500    -4.2040 nd         1 X9P      -0.521800
     38 N27         22.4860     5.7340    -3.5570 na         1 X9P       0.115400
     39 C28         23.7240     5.8880    -4.3170 c3         1 X9P       0.073000
     40 C29         24.2650     4.5240    -4.7210 c3         1 X9P      -0.103100
     41 H1          23.3760    10.3030     4.9450 h1         1 X9P       0.059700
     42 H2          24.9210     8.0160     6.2090 hc         1 X9P       0.059700
     43 H3          25.4790     9.6390     5.8310 hc         1 X9P       0.059700
     44 H4          26.2340     8.0810     4.0670 hc         1 X9P       0.045200
     45 H5          25.0430     9.1750     3.3860 hc         1 X9P       0.045200
     46 H6          24.6080     6.3040     4.3150 hc         1 X9P       0.053200
     47 H7          24.4770     6.8970     2.6770 hc         1 X9P       0.053200
     48 H8          19.0480     8.0110     4.4610 ha         1 X9P       0.140000
     49 H9          18.2140     5.6710     4.3340 ha         1 X9P       0.144000
     50 H10         16.6670     4.2850     3.0460 h4         1 X9P       0.022100
     51 H11         21.4010     6.6580     0.5010 hn         1 X9P       0.308700
     52 H12         23.1060     7.7670    -5.2090 hc         1 X9P       0.051533
     53 H13         24.4730     6.9810    -5.9980 hc         1 X9P       0.051533
     54 H14         22.8420     6.3570    -6.2460 hc         1 X9P       0.051533
     55 H15         23.6720     7.0560    -1.1560 hc         1 X9P       0.053367
     56 H16         23.2320     5.5850    -0.2920 hc         1 X9P       0.053367
     57 H17         24.3790     5.5080    -1.6090 hc         1 X9P       0.053367
     58 H18         23.3030    12.5260    11.8700 hc         1 X9P       0.044256
     59 H19         22.7680    13.2220    10.3350 hc         1 X9P       0.044256
     60 H20         22.1900    13.8950    11.8590 hc         1 X9P       0.044256
     61 H21         19.7940    13.6040    11.1050 hc         1 X9P       0.044256
     62 H22         20.3540    12.9370     9.5720 hc         1 X9P       0.044256
     63 H23         19.2070    12.0300    10.5650 hc         1 X9P       0.044256
     64 H24         21.6370    11.2530    13.3490 hc         1 X9P       0.044256
     65 H25         20.5490    12.6380    13.2840 hc         1 X9P       0.044256
     66 H26         19.9660    11.0430    12.8130 hc         1 X9P       0.044256
     67 H27         22.8200    10.7210     7.0400 hn         1 X9P       0.344500
     68 H28         22.2730     5.8730     2.6200 ha         1 X9P       0.131000
     69 H29         20.6680     9.3960     5.6490 ha         1 X9P       0.133000
     70 H31         19.4190     5.0690    -3.5270 h4         1 X9P       0.059100
     71 H32         24.4340     6.3690    -3.6440 h1         1 X9P       0.053700
     72 H33         24.4380     3.8910    -3.8490 hc         1 X9P       0.051533
     73 H34         23.5690     4.0120    -5.3860 hc         1 X9P       0.051533
     74 H35         25.2130     4.6380    -5.2450 hc         1 X9P       0.051533
@<TRIPOS>BOND
     1     1    19 1   
     2     1    28 2   
     3     1    29 1   
     4     2     3 1   
     5     2    29 1   
     6     2    32 1   
     7     2    41 1   
     8     3     4 1   
     9     3    42 1   
    10     3    43 1   
    11     4     5 1   
    12     4    44 1   
    13     4    45 1   
    14     5    30 1   
    15     5    46 1   
    16     5    47 1   
    17     6     7 ar  
    18     6     8 1   
    19     6    31 ar  
    20     7    33 ar  
    21     7    48 1   
    22     8     9 ar  
    23     8    14 ar  
    24     9    10 ar  
    25     9    49 1   
    26    10    34 ar  
    27    10    50 1   
    28    11    14 ar  
    29    11    34 ar  
    30    11    35 1   
    31    12    13 1   
    32    12    15 1   
    33    12    35 2   
    34    13    14 1   
    35    13    51 1   
    36    15    17 2   
    37    15    36 1   
    38    16    39 1   
    39    16    52 1   
    40    16    53 1   
    41    16    54 1   
    42    17    18 1   
    43    17    38 1   
    44    18    55 1   
    45    18    56 1   
    46    18    57 1   
    47    19    25 2   
    48    19    27 1   
    49    20    21 1   
    50    20    25 1   
    51    20    26 2   
    52    21    22 1   
    53    21    23 1   
    54    21    24 1   
    55    22    58 1   
    56    22    59 1   
    57    22    60 1   
    58    23    61 1   
    59    23    62 1   
    60    23    63 1   
    61    24    64 1   
    62    24    65 1   
    63    24    66 1   
    64    26    27 1   
    65    29    67 1   
    66    30    31 ar  
    67    30    32 ar  
    68    31    68 1   
    69    32    33 ar  
    70    33    69 1   
    71    36    37 2   
    72    36    70 1   
    73    37    38 1   
    74    38    39 1   
    75    39    40 1   
    76    39    71 1   
    77    40    72 1   
    78    40    73 1   
    79    40    74 1   
@<TRIPOS>SUBSTRUCTURE
     1 X9P         1 TEMP              0 ****  ****    0 ROOT
