@<TRIPOS>MOLECULE
X9Q
   36    37     1     0     0
SMALL
No Charge or Current Charge


@<TRIPOS>ATOM
      1 CD1         -3.7220     0.2740    -1.1410 ca         1 X9Q      -0.096000
      2 CE1         -4.9780     0.7070    -0.6800 ca         1 X9Q      -0.117500
      3 CZ          -5.5570     0.1080     0.4510 ca         1 X9Q      -0.123000
      4 CE2         -4.8790    -0.9230     1.1220 ca         1 X9Q      -0.117500
      5 CD2         -3.6240    -1.3570     0.6620 ca         1 X9Q      -0.096000
      6 CG2         -3.0380    -0.7610    -0.4730 ca         1 X9Q      -0.051300
      7 CB2         -1.6750    -1.2350    -0.9680 c3         1 X9Q      -0.058400
      8 CA2         -0.4920    -0.5710    -0.2800 ce         1 X9Q       0.359300
      9 C2           0.7400    -1.3410     0.0410 c          1 X9Q       0.446700
     10 O2           0.9900    -2.5220    -0.1910 o          1 X9Q      -0.556000
     11 N2          -0.4690     0.6470     0.1920 n2         1 X9Q      -0.572900
     12 C1           0.9060     0.8670     0.7890 c5         1 X9Q       0.265900
     13 CA1          1.6620     2.0380     0.0580 c3         1 X9Q       0.171500
     14 CB1          1.0900     3.4280     0.4000 c3         1 X9Q      -0.125100
     15 N1           1.6800     1.8810    -1.4220 n8         1 X9Q      -0.971200
     16 N3           1.5650    -0.4520     0.6940 n          1 X9Q      -0.363800
     17 CA3          2.8400    -0.8550     1.3520 c3         1 X9Q      -0.036000
     18 C3           4.1340    -0.5080     0.5710 c          1 X9Q       0.710000
     19 O3           4.4680    -1.2320    -0.3580 o          1 X9Q      -0.717000
     20 OXT          4.7930     0.4530     0.9460 o          1 X9Q      -0.717000
     21 HD1         -3.2800     0.7450    -2.0160 ha         1 X9Q       0.114000
     22 HE1         -5.5010     1.5060    -1.2000 ha         1 X9Q       0.101500
     23 HZ          -6.5290     0.4430     0.8080 ha         1 X9Q       0.099000
     24 HE2         -5.3260    -1.3870     1.9990 ha         1 X9Q       0.101500
     25 HD2         -3.1050    -2.1550     1.1890 ha         1 X9Q       0.114000
     26 HB21        -1.6060    -2.3240    -0.8630 hc         1 X9Q       0.070200
     27 HB22        -1.5980    -1.0470    -2.0450 hc         1 X9Q       0.070200
     28 H1           0.8290     1.0880     1.8620 h2         1 X9Q       0.066700
     29 HA1          2.7030     2.0300     0.4140 h1         1 X9Q       0.085700
     30 HB11         0.0510     3.5240     0.0610 hc         1 X9Q       0.030700
     31 HB12         1.1100     3.5910     1.4850 hc         1 X9Q       0.030700
     32 HB13         1.6830     4.2220    -0.0700 hc         1 X9Q       0.030700
     33 HN11         0.7100     1.7560    -1.7300 hn         1 X9Q       0.393000
     34 HN12         1.9560     2.7730    -1.8460 hn         1 X9Q       0.393000
     35 HA31         2.8910    -0.3650     2.3320 h1         1 X9Q       0.032200
     36 HA32         2.8330    -1.9380     1.5320 h1         1 X9Q       0.032200
@<TRIPOS>BOND
     1     1     2 ar  
     2     1     6 ar  
     3     1    21 1   
     4     2     3 ar  
     5     2    22 1   
     6     3     4 ar  
     7     3    23 1   
     8     4     5 ar  
     9     4    24 1   
    10     5     6 ar  
    11     5    25 1   
    12     6     7 1   
    13     7     8 1   
    14     7    26 1   
    15     7    27 1   
    16     8     9 1   
    17     8    11 2   
    18     9    10 2   
    19     9    16 1   
    20    11    12 1   
    21    12    13 1   
    22    12    16 1   
    23    12    28 1   
    24    13    14 1   
    25    13    15 1   
    26    13    29 1   
    27    14    30 1   
    28    14    31 1   
    29    14    32 1   
    30    15    33 1   
    31    15    34 1   
    32    16    17 1   
    33    17    18 1   
    34    17    35 1   
    35    17    36 1   
    36    18    19 1   
    37    18    20 1   
@<TRIPOS>SUBSTRUCTURE
     1 X9Q         1 TEMP              0 ****  ****    0 ROOT
