@<TRIPOS>MOLECULE
X9Q
   36    37     1     0     0
SMALL
abcg2


@<TRIPOS>ATOM
      1 CD1         -3.2940    -0.0260    -1.3620 ca         1 X9Q      -0.096000
      2 CE1         -4.4720     0.7030    -1.2680 ca         1 X9Q      -0.117500
      3 CZ          -5.2470     0.6270    -0.1180 ca         1 X9Q      -0.123000
      4 CE2         -4.8360    -0.1820     0.9340 ca         1 X9Q      -0.117500
      5 CD2         -3.6580    -0.9090     0.8340 ca         1 X9Q      -0.096000
      6 CG2         -2.8760    -0.8410    -0.3150 ca         1 X9Q      -0.051300
      7 CB2         -1.5910    -1.6090    -0.4140 c3         1 X9Q      -0.058400
      8 CA2         -0.4180    -0.8680     0.1290 ce         1 X9Q       0.359300
      9 C2           0.9740    -1.4200     0.0320 c          1 X9Q       0.446700
     10 O2           1.3170    -2.4900    -0.4480 o          1 X9Q      -0.556000
     11 N2          -0.4530     0.2420     0.7400 n2         1 X9Q      -0.572900
     12 C1           0.9010     0.6190     1.0450 c5         1 X9Q       0.265900
     13 CA1          1.2540     1.9180     0.2900 c3         1 X9Q       0.171500
     14 CB1          0.6130     3.1150     0.9840 c3         1 X9Q      -0.125100
     15 N1           0.9030     1.7810    -1.1080 n8         1 X9Q      -0.971200
     16 N3           1.7190    -0.5030     0.6510 n          1 X9Q      -0.363800
     17 CA3          3.1260    -0.6130     0.9150 c3         1 X9Q      -0.036000
     18 C3           4.0700    -0.3140    -0.2730 c          1 X9Q       0.710000
     19 O3           3.5660    -0.1100    -1.3850 o          1 X9Q      -0.717000
     20 OXT          5.2800    -0.3290     0.0320 o          1 X9Q      -0.717000
     21 HD1         -2.6940     0.0360    -2.2620 ha         1 X9Q       0.114000
     22 HE1         -4.7860     1.3280    -2.0940 ha         1 X9Q       0.101500
     23 HZ          -6.1670     1.1930    -0.0440 ha         1 X9Q       0.099000
     24 HE2         -5.4360    -0.2460     1.8330 ha         1 X9Q       0.101500
     25 HD2         -3.3470    -1.5430     1.6570 ha         1 X9Q       0.114000
     26 HB21        -1.6650    -2.5640     0.1160 hc         1 X9Q       0.070200
     27 HB22        -1.3740    -1.8710    -1.4540 hc         1 X9Q       0.070200
     28 H1           1.0040     0.7950     2.1220 h2         1 X9Q       0.066700
     29 HA1          2.3400     2.0260     0.3530 h1         1 X9Q       0.085700
     30 HB11        -0.4760     3.0510     0.9470 hc         1 X9Q       0.030700
     31 HB12         0.9080     3.1840     2.0330 hc         1 X9Q       0.030700
     32 HB13         0.9130     4.0420     0.4930 hc         1 X9Q       0.030700
     33 HN11        -0.0490     2.0880    -1.2590 hn         1 X9Q       0.393000
     34 HN12         1.4960     2.3700    -1.6730 hn         1 X9Q       0.393000
     35 HA31         3.3690     0.0530     1.7460 h1         1 X9Q       0.032200
     36 HA32         3.3370    -1.6260     1.2700 h1         1 X9Q       0.032200
@<TRIPOS>BOND
     1     1     2 ar  
     2     1     6 ar  
     3     1    21 1   
     4     2     3 ar  
     5     2    22 1   
     6     3     4 ar  
     7     3    23 1   
     8     4     5 ar  
     9     4    24 1   
    10     5     6 ar  
    11     5    25 1   
    12     6     7 1   
    13     7     8 1   
    14     7    26 1   
    15     7    27 1   
    16     8     9 1   
    17     8    11 2   
    18     9    10 2   
    19     9    16 1   
    20    11    12 1   
    21    12    13 1   
    22    12    16 1   
    23    12    28 1   
    24    13    14 1   
    25    13    15 1   
    26    13    29 1   
    27    14    30 1   
    28    14    31 1   
    29    14    32 1   
    30    15    33 1   
    31    15    34 1   
    32    16    17 1   
    33    17    18 1   
    34    17    35 1   
    35    17    36 1   
    36    18    19 1   
    37    18    20 1   
@<TRIPOS>SUBSTRUCTURE
     1 X9Q         1 TEMP              0 ****  ****    0 ROOT
