@<TRIPOS>MOLECULE
X9S
   79    85     1     0     0
SMALL
No Charge or Current Charge


@<TRIPOS>ATOM
      1 C1         -16.0010     5.2750   -15.4270 cp         1 X9S      -0.028000
      2 C2         -16.3480     5.8280   -14.1720 ca         1 X9S      -0.098000
      3 C3         -15.3660     6.1390   -13.2180 ca         1 X9S      -0.099000
      4 C8         -17.0550     4.9470   -16.4410 cp         1 X9S       0.058000
      5 C9         -18.3090     4.4140   -16.0490 ca         1 X9S      -0.180000
      6 C10        -19.2860     4.1130   -17.0140 ca         1 X9S       0.348900
      7 C12        -16.8690     5.1520   -17.8350 ca         1 X9S       0.049400
      8 C13        -17.9030     4.8200   -18.7000 ca         1 X9S       0.338500
      9 C15        -16.1880     5.6290   -19.8410 cc         1 X9S       0.541400
     10 C21        -14.2030     6.5500   -21.0660 cd         1 X9S      -0.059300
     11 C22        -12.7630     7.3730   -23.0370 c6         1 X9S       0.102300
     12 C24        -13.5570     9.3200   -10.2010 cc         1 X9S       0.416500
     13 N26        -13.9470    11.1380    -8.9890 nc         1 X9S      -0.364300
     14 C27        -14.1370    11.3550   -10.2830 cd         1 X9S       0.559300
     15 C30        -14.7680    13.7780    -9.7380 c3         1 X9S      -0.084767
     16 C31        -13.4960    13.2260   -11.8460 c3         1 X9S      -0.084767
     17 C32        -15.9220    12.5410   -11.6100 c3         1 X9S      -0.084767
     18 C33        -13.6360     5.3320   -14.7290 ca         1 X9S      -0.071300
     19 C34        -14.0010     5.9130   -13.4890 ca         1 X9S      -0.092300
     20 C35        -12.9450     6.2540   -12.4190 c6         1 X9S       0.158000
     21 C4         -14.6300     5.0280   -15.6780 ca         1 X9S      -0.076000
     22 N5         -13.2290     7.5680   -11.8310 ns         1 X9S      -0.481900
     23 C6         -13.1860     7.8890   -10.4860 c          1 X9S       0.536600
     24 O7         -12.8710     7.0600    -9.6370 o          1 X9S      -0.553100
     25 N11        -19.0930     4.3110   -18.3370 nb         1 X9S      -0.664000
     26 N14        -17.4650     5.1190   -19.9410 na         1 X9S      -0.418300
     27 N16        -15.7890     5.6700   -18.5640 nd         1 X9S      -0.596100
     28 C17        -15.4710     6.0380   -21.0130 cc         1 X9S      -0.265900
     29 C18        -15.9490     5.9820   -22.3270 cc         1 X9S       0.260900
     30 N19        -15.0940     6.4250   -23.2220 nd         1 X9S      -0.519800
     31 N20        -14.0030     6.8000   -22.4390 na         1 X9S       0.129800
     32 O25        -13.5590     9.7820    -8.9190 os         1 X9S      -0.042700
     33 N28        -13.9070    10.2540   -11.0790 nd         1 X9S      -0.717000
     34 C29        -14.5750    12.7090   -10.8550 c3         1 X9S      -0.071300
     35 C36        -12.1730     5.0280   -15.0730 c6         1 X9S      -0.033100
     36 C37        -13.0410     8.3090   -24.2510 c6         1 X9S      -0.122400
     37 C38        -11.7230     8.8110   -24.9010 c6         1 X9S       0.154600
     38 O39        -10.5690     8.2600   -24.2270 os         1 X9S      -0.452000
     39 C40        -10.5390     6.8160   -24.2070 c6         1 X9S       0.154600
     40 C41        -11.7670     6.2510   -23.4420 c6         1 X9S      -0.122400
     41 C42        -11.4950     6.2310   -12.9570 c6         1 X9S      -0.088400
     42 C43        -11.2520     4.9900   -13.8360 c6         1 X9S      -0.071400
     43 H1         -17.3910     6.0310   -13.9390 ha         1 X9S       0.117000
     44 H2         -15.6730     6.5600   -12.2630 ha         1 X9S       0.117000
     45 H3         -18.5250     4.2210   -15.0030 ha         1 X9S       0.126000
     46 H4         -20.2500     3.6990   -16.7190 h4         1 X9S       0.022100
     47 H5         -12.2810     7.9950   -22.2700 h1         1 X9S       0.072700
     48 H6         -13.8350    13.9470    -9.1870 hc         1 X9S       0.044144
     49 H7         -15.0820    14.7390   -10.1650 hc         1 X9S       0.044144
     50 H8         -15.5370    13.4650    -9.0210 hc         1 X9S       0.044144
     51 H9         -12.5280    13.3410   -11.3420 hc         1 X9S       0.044144
     52 H10        -13.3600    12.5290   -12.6820 hc         1 X9S       0.044144
     53 H11        -13.7790    14.2000   -12.2640 hc         1 X9S       0.044144
     54 H12        -16.2660    13.4980   -12.0210 hc         1 X9S       0.044144
     55 H13        -15.8240    11.8340   -12.4430 hc         1 X9S       0.044144
     56 H14        -16.7010    12.1620   -10.9360 hc         1 X9S       0.044144
     57 H15        -13.0290     5.4880   -11.6320 h1         1 X9S       0.090700
     58 H16        -14.3340     4.5800   -16.6230 ha         1 X9S       0.130000
     59 H17        -13.5050     8.3220   -12.4530 hn         1 X9S       0.342500
     60 H18        -17.9860     4.9900   -20.7910 hn         1 X9S       0.369000
     61 H20        -16.9130     5.6260   -22.6660 h4         1 X9S       0.036100
     62 H21        -13.4600     7.7160   -19.4030 hc         1 X9S       0.064700
     63 H22        -13.1720     5.9760   -19.2500 hc         1 X9S       0.064700
     64 H23        -12.1790     6.9290   -20.3380 hc         1 X9S       0.064700
     65 H24        -12.1030     4.0700   -15.6060 hc         1 X9S       0.051200
     66 H25        -11.8090     5.7930   -15.7730 hc         1 X9S       0.051200
     67 H26        -13.6510     9.1660   -23.9330 hc         1 X9S       0.065950
     68 H27        -13.6250     7.7800   -25.0160 hc         1 X9S       0.065950
     69 H28        -11.6720     9.9080   -24.8450 h1         1 X9S       0.050200
     70 H29        -11.6920     8.5270   -25.9630 h1         1 X9S       0.050200
     71 H30        -10.5310     6.4420   -25.2420 h1         1 X9S       0.050200
     72 H31         -9.6090     6.4850   -23.7230 h1         1 X9S       0.050200
     73 H32        -12.2730     5.5100   -24.0760 hc         1 X9S       0.065950
     74 H33        -11.4300     5.7110   -22.5470 hc         1 X9S       0.065950
     75 H34        -10.7870     6.2440   -12.1170 hc         1 X9S       0.050700
     76 H35        -11.2990     7.1370   -13.5470 hc         1 X9S       0.050700
     77 H36        -11.4440     4.0770   -13.2540 hc         1 X9S       0.048700
     78 H37        -10.2010     4.9480   -14.1530 hc         1 X9S       0.048700
     79 C23        -13.2000     6.8090   -19.9610 c3         1 X9S      -0.044800
@<TRIPOS>BOND
     1     1     2 ar  
     2     1     4 1   
     3     1    21 ar  
     4     2     3 ar  
     5     2    43 1   
     6     3    19 ar  
     7     3    44 1   
     8     4     5 ar  
     9     4     7 ar  
    10     5     6 ar  
    11     5    45 1   
    12     6    25 ar  
    13     6    46 1   
    14     7     8 ar  
    15     7    27 1   
    16     8    25 ar  
    17     8    26 1   
    18     9    26 1   
    19     9    27 2   
    20     9    28 1   
    21    10    28 2   
    22    10    31 1   
    23    10    79 1   
    24    11    31 1   
    25    11    36 1   
    26    11    40 1   
    27    11    47 1   
    28    12    23 1   
    29    12    32 1   
    30    12    33 2   
    31    13    14 2   
    32    13    32 1   
    33    14    33 1   
    34    14    34 1   
    35    15    34 1   
    36    15    48 1   
    37    15    49 1   
    38    15    50 1   
    39    16    34 1   
    40    16    51 1   
    41    16    52 1   
    42    16    53 1   
    43    17    34 1   
    44    17    54 1   
    45    17    55 1   
    46    17    56 1   
    47    18    19 ar  
    48    18    21 ar  
    49    18    35 1   
    50    19    20 1   
    51    20    22 1   
    52    20    41 1   
    53    20    57 1   
    54    21    58 1   
    55    22    23 1   
    56    22    59 1   
    57    23    24 2   
    58    26    60 1   
    59    28    29 1   
    60    29    30 2   
    61    29    61 1   
    62    30    31 1   
    63    35    42 1   
    64    35    65 1   
    65    35    66 1   
    66    36    37 1   
    67    36    67 1   
    68    36    68 1   
    69    37    38 1   
    70    37    69 1   
    71    37    70 1   
    72    38    39 1   
    73    39    40 1   
    74    39    71 1   
    75    39    72 1   
    76    40    73 1   
    77    40    74 1   
    78    41    42 1   
    79    41    75 1   
    80    41    76 1   
    81    42    77 1   
    82    42    78 1   
    83    62    79 1   
    84    63    79 1   
    85    64    79 1   
@<TRIPOS>SUBSTRUCTURE
     1 X9S         1 TEMP              0 ****  ****    0 ROOT
