@<TRIPOS>MOLECULE
X9T
   51    55     1     0     0
SMALL
abcg2


@<TRIPOS>ATOM
      1 C4         102.9210   100.2860   105.4000 ca         1 X9T       0.405900
      2 C6         101.8230    99.8810   107.3510 ca         1 X9T       0.608300
      3 C7         100.9660    98.9640   106.7260 ca         1 X9T       0.031000
      4 C10        102.5450   100.9090   109.3640 ca         1 X9T       0.160100
      5 C13        104.2040   102.5360   110.9190 ca         1 X9T      -0.134000
      6 C15        103.6310   100.3460   110.0050 ca         1 X9T      -0.156300
      7 C17        105.4920    99.1710   110.8100 c5         1 X9T       0.147600
      8 C22        103.4220    98.4930   102.7680 ca         1 X9T       0.194900
      9 C24        104.2370    97.9300   100.6190 ca         1 X9T       0.113900
     10 C26        105.2860    97.2610   102.5690 ca         1 X9T       0.140300
     11 C28        106.4110    96.5300   103.2360 c3         1 X9T      -0.129400
     12 C11        102.2720   102.2690   109.4720 ca         1 X9T      -0.137000
     13 C12        103.1030   103.0700   110.2490 ca         1 X9T      -0.071000
     14 C14        104.4380   101.1770   110.7790 ca         1 X9T       0.131100
     15 C16        104.1150    98.9140   110.1450 c5         1 X9T      -0.014700
     16 C19        103.1820    98.1380   111.0890 c3         1 X9T      -0.080100
     17 C2         101.1100    98.6870   105.3720 ca         1 X9T       0.023700
     18 C23        103.2830    98.5670   101.3710 ca         1 X9T      -0.100400
     19 C3         102.1260    99.3910   104.7070 ca         1 X9T      -0.031400
     20 C30        101.5570    99.7130   102.2950 c          1 X9T       0.604000
     21 N21        102.3680    99.1900   103.3220 n          1 X9T      -0.302500
     22 N25        105.2420    97.2760   101.2380 nb         1 X9T      -0.178000
     23 N27        104.3890    97.8590   103.3870 nb         1 X9T      -0.176000
     24 N29        102.1460    99.3110   101.1170 ns         1 X9T      -0.495600
     25 N5         102.7750   100.5220   106.7030 nb         1 X9T      -0.723000
     26 O18        105.4510   100.5040   111.3920 os         1 X9T      -0.338100
     27 O9         101.6500   100.0860   108.6740 os         1 X9T      -0.357400
     28 CL8         99.7410    98.1680   107.6680 cl         1 X9T      -0.167000
     29 HC4        103.7050   100.8270   104.8820 h4         1 X9T       0.037100
     30 HC13       104.8510   103.1540   111.5270 ha         1 X9T       0.133000
     31 H171       105.7210    98.4670   111.6070 h1         1 X9T       0.061200
     32 H172       106.2930    99.1620   110.0670 h1         1 X9T       0.061200
     33 H203       104.8360    97.2260   109.0080 hc         1 X9T       0.043533
     34 H202       103.3270    97.8930   108.3920 hc         1 X9T       0.043533
     35 H201       104.8490    98.7490   108.1030 hc         1 X9T       0.043533
     36 HC24       104.2230    97.9260    99.5360 h4         1 X9T       0.035100
     37 H283       107.0590    96.0680   102.4950 hc         1 X9T       0.063033
     38 H282       106.9980    97.2190   103.8470 hc         1 X9T       0.063033
     39 H281       106.0190    95.7590   103.9030 hc         1 X9T       0.063033
     40 H1_3       100.2020    96.7600   105.2390 hc         1 X9T       0.061033
     41 H1_2        99.2150    98.0710   104.6090 hc         1 X9T       0.061033
     42 H1_1       100.5950    97.4840   103.6720 hc         1 X9T       0.061033
     43 HC11       101.4190   102.6830   108.9520 ha         1 X9T       0.131000
     44 HC12       102.8910   104.1280   110.3330 ha         1 X9T       0.120000
     45 H193       103.1020    98.6380   112.0560 hc         1 X9T       0.043533
     46 H192       102.1830    98.0600   110.6570 hc         1 X9T       0.043533
     47 H191       103.5680    97.1290   111.2520 hc         1 X9T       0.043533
     48 HN29       101.7670    99.5420   100.2120 hn         1 X9T       0.477000
     49 C1         100.2370    97.6930   104.6760 c3         1 X9T      -0.053800
     50 O31        100.5500   100.3760   102.4470 o          1 X9T      -0.522000
     51 C20        104.2900    98.1550   108.8270 c3         1 X9T      -0.080100
@<TRIPOS>BOND
     1     1    19 ar  
     2     1    25 ar  
     3     1    29 1   
     4     2     3 ar  
     5     2    25 ar  
     6     2    27 1   
     7     3    17 ar  
     8     3    28 1   
     9     4     6 ar  
    10     4    12 ar  
    11     4    27 1   
    12     5    13 ar  
    13     5    14 ar  
    14     5    30 1   
    15     6    14 ar  
    16     6    15 1   
    17     7    15 1   
    18     7    26 1   
    19     7    31 1   
    20     7    32 1   
    21     8    18 ar  
    22     8    21 1   
    23     8    23 ar  
    24     9    18 ar  
    25     9    22 ar  
    26     9    36 1   
    27    10    11 1   
    28    10    22 ar  
    29    10    23 ar  
    30    11    37 1   
    31    11    38 1   
    32    11    39 1   
    33    12    13 ar  
    34    12    43 1   
    35    13    44 1   
    36    14    26 1   
    37    15    16 1   
    38    15    51 1   
    39    16    45 1   
    40    16    46 1   
    41    16    47 1   
    42    17    19 ar  
    43    17    49 1   
    44    18    24 1   
    45    19    21 1   
    46    20    21 1   
    47    20    24 1   
    48    20    50 2   
    49    24    48 1   
    50    33    51 1   
    51    34    51 1   
    52    35    51 1   
    53    40    49 1   
    54    41    49 1   
    55    42    49 1   
@<TRIPOS>SUBSTRUCTURE
     1 X9T         1 TEMP              0 ****  ****    0 ROOT
