@<TRIPOS>MOLECULE
X9T
   51    55     1     0     0
SMALL
No Charge or Current Charge


@<TRIPOS>ATOM
      1 C4         103.0890    99.7420   105.2270 ca         1 X9T       0.405900
      2 C6         102.0200    99.6450   107.2760 ca         1 X9T       0.608300
      3 C7         100.9540    98.8950   106.7290 ca         1 X9T       0.031000
      4 C10        102.9120   100.7370   109.2420 ca         1 X9T       0.160100
      5 C13        104.7310   102.4110   110.6080 ca         1 X9T      -0.134000
      6 C15        103.7610   100.2140   110.2350 ca         1 X9T      -0.156300
      7 C17        105.1920    98.9900   111.5870 c5         1 X9T       0.147600
      8 C22        103.3940    98.5660   102.4670 ca         1 X9T       0.194900
      9 C24        104.2020    98.3920   100.2110 ca         1 X9T       0.113900
     10 C26        105.5530    97.9920   102.0620 ca         1 X9T       0.140300
     11 C28        106.9250    97.6190   102.5970 c3         1 X9T      -0.129400
     12 C11        102.9790   102.1130   108.9360 ca         1 X9T      -0.137000
     13 C12        103.8910   102.9490   109.6140 ca         1 X9T      -0.071000
     14 C14        104.6460   101.0410   110.8910 ca         1 X9T       0.131100
     15 C16        103.8420    98.8100   110.7800 c5         1 X9T      -0.014700
     16 C19        102.6370    98.4970   111.7010 c3         1 X9T      -0.080100
     17 C2         100.9700    98.5590   105.3540 ca         1 X9T       0.023700
     18 C23        103.1600    98.6380   101.1120 ca         1 X9T      -0.100400
     19 C3         102.0640    99.0180   104.5710 ca         1 X9T      -0.031400
     20 C30        101.1610    99.0940   102.1690 c          1 X9T       0.604000
     21 N21        102.1470    98.7870   103.1420 n          1 X9T      -0.302500
     22 N25        105.4230    98.0680   100.7050 nb         1 X9T      -0.178000
     23 N27        104.5820    98.2150   102.9880 nb         1 X9T      -0.176000
     24 N29        101.8040    98.9550   100.9690 ns         1 X9T      -0.495600
     25 N5         103.0770   100.0520   106.5400 nb         1 X9T      -0.723000
     26 O18        105.3850   100.4170   111.8540 os         1 X9T      -0.338100
     27 O9         101.9850    99.9350   108.6230 os         1 X9T      -0.357400
     28 Cl8         99.6160    98.3770   107.7760 cl         1 X9T      -0.167000
     29 HC4        103.9390   100.1310   104.6700 h4         1 X9T       0.037100
     30 HC13       105.4320   103.0420   111.1480 ha         1 X9T       0.133000
     31 H171       105.2050    98.4290   112.5310 h1         1 X9T       0.061200
     32 H172       106.0460    98.6480   110.9860 h1         1 X9T       0.061200
     33 H203       104.2170    96.7440   110.1350 hc         1 X9T       0.043533
     34 H202       103.0110    97.5740   109.1490 hc         1 X9T       0.043533
     35 H201       104.7280    97.9610   108.9550 hc         1 X9T       0.043533
     36 HC24       104.0770    98.4380    99.1300 h4         1 X9T       0.035100
     37 H283       107.5130    97.0700   101.8520 hc         1 X9T       0.063033
     38 H282       107.4900    98.5160   102.8740 hc         1 X9T       0.063033
     39 H281       106.8470    96.9840   103.4870 hc         1 X9T       0.063033
     40 H1_3        99.6060    96.8530   105.4720 hc         1 X9T       0.061033
     41 H1_2        98.9610    98.2320   104.5700 hc         1 X9T       0.061033
     42 H1_1       100.1810    97.1610   103.8540 hc         1 X9T       0.061033
     43 HC11       102.3190   102.5320   108.1810 ha         1 X9T       0.131000
     44 HC12       103.9380   104.0100   109.3770 ha         1 X9T       0.120000
     45 H193       102.5390    99.2480   112.4940 hc         1 X9T       0.043533
     46 H192       101.6960    98.4860   111.1380 hc         1 X9T       0.043533
     47 H191       102.7490    97.5180   112.1840 hc         1 X9T       0.043533
     48 HN29       101.3480    99.1710   100.0860 hn         1 X9T       0.477000
     49 C1          99.8720    97.6590   104.7790 c3         1 X9T      -0.053800
     50 O31        100.0140    99.4700   102.3380 o          1 X9T      -0.522000
     51 C20        103.9540    97.7120   109.6910 c3         1 X9T      -0.080100
@<TRIPOS>BOND
     1     1    19 ar  
     2     1    25 ar  
     3     1    29 1   
     4     2     3 ar  
     5     2    25 ar  
     6     2    27 1   
     7     3    17 ar  
     8     3    28 1   
     9     4     6 ar  
    10     4    12 ar  
    11     4    27 1   
    12     5    13 ar  
    13     5    14 ar  
    14     5    30 1   
    15     6    14 ar  
    16     6    15 1   
    17     7    15 1   
    18     7    26 1   
    19     7    31 1   
    20     7    32 1   
    21     8    18 ar  
    22     8    21 1   
    23     8    23 ar  
    24     9    18 ar  
    25     9    22 ar  
    26     9    36 1   
    27    10    11 1   
    28    10    22 ar  
    29    10    23 ar  
    30    11    37 1   
    31    11    38 1   
    32    11    39 1   
    33    12    13 ar  
    34    12    43 1   
    35    13    44 1   
    36    14    26 1   
    37    15    16 1   
    38    15    51 1   
    39    16    45 1   
    40    16    46 1   
    41    16    47 1   
    42    17    19 ar  
    43    17    49 1   
    44    18    24 1   
    45    19    21 1   
    46    20    21 1   
    47    20    24 1   
    48    20    50 2   
    49    24    48 1   
    50    33    51 1   
    51    34    51 1   
    52    35    51 1   
    53    40    49 1   
    54    41    49 1   
    55    42    49 1   
@<TRIPOS>SUBSTRUCTURE
     1 X9T         1 TEMP              0 ****  ****    0 ROOT
