@<TRIPOS>MOLECULE
X9U
   55    59     1     0     0
SMALL
abcg2


@<TRIPOS>ATOM
      1 C16        -17.3420     2.7830     0.5900 ca         1 X9U      -0.110500
      2 C21        -21.8840     4.3620    -3.2490 ca         1 X9U      -0.180000
      3 C20        -21.2590     3.7160    -2.1980 ca         1 X9U      -0.051000
      4 C19        -20.1130     2.8430     0.4500 ca         1 X9U      -0.104500
      5 C18        -19.4830     2.1920     1.5030 ca         1 X9U      -0.110500
      6 C17        -18.0940     2.1590     1.5810 ca         1 X9U      -0.111000
      7 N2         -21.9200     6.1270    -4.9130 nv         1 X9U      -1.068000
      8 C15        -17.9720     3.4310    -0.4660 ca         1 X9U      -0.104500
      9 C14        -19.3700     3.4750    -0.5560 cp         1 X9U      -0.021000
     10 N1         -19.4990     7.1400    -3.8600 ns         1 X9U      -0.176000
     11 C13        -20.0390     4.1680    -1.6780 cp         1 X9U      -0.079000
     12 C12        -19.4780     5.3040    -2.2670 ca         1 X9U      -0.052000
     13 C22        -21.3210     5.5050    -3.8360 ca         1 X9U       0.313000
     14 C23        -17.7800     8.6440    -6.7020 ca         1 X9U      -0.071500
     15 C11        -20.0970     5.9630    -3.3180 ca         1 X9U      -0.123000
     16 C10        -18.7210     7.1330    -4.9720 c          1 X9U       0.610700
     17 C9         -18.1100     8.4410    -5.3610 ca         1 X9U      -0.154600
     18 O1         -18.5310     6.1130    -5.6330 o          1 X9U      -0.575100
     19 C8         -17.8270     9.4520    -4.4410 ca         1 X9U      -0.071500
     20 C1         -15.9390    14.5170    -6.5690 cc         1 X9U      -0.250600
     21 C          -14.8950    14.5010    -7.5410 c          1 X9U       0.586600
     22 C7         -17.2370    10.6370    -4.8530 ca         1 X9U      -0.116500
     23 C2         -16.6290    13.3910    -6.1030 cd         1 X9U      -0.032800
     24 N          -16.4650    15.6250    -5.9630 na         1 X9U      -0.084000
     25 C6         -16.9160    10.8530    -6.1990 ca         1 X9U       0.003200
     26 C5         -16.2720    12.1070    -6.6290 cd         1 X9U      -0.068400
     27 C4         -17.4730    15.2390    -5.1280 cc         1 X9U      -0.148000
     28 C3         -17.6100    13.8680    -5.1840 cd         1 X9U      -0.187000
     29 C24        -17.2050     9.8340    -7.1170 ca         1 X9U      -0.116500
     30 C25        -15.2770    12.0920    -7.5620 cc         1 X9U      -0.051400
     31 N3         -14.6140    13.2150    -8.0000 n          1 X9U      -0.280000
     32 H1         -16.2600     2.7590     0.6330 ha         1 X9U       0.111500
     33 H2         -22.8230     3.9840    -3.6350 ha         1 X9U       0.116000
     34 H3         -21.7220     2.8290    -1.7850 ha         1 X9U       0.114000
     35 H4         -21.1940     2.8790     0.4190 ha         1 X9U       0.113000
     36 H5         -20.0810     1.7150     2.2710 ha         1 X9U       0.111500
     37 H6         -17.6030     1.6520     2.4020 ha         1 X9U       0.112000
     38 H7         -22.9130     5.9820    -5.0100 hn         1 X9U       0.455500
     39 H8         -21.6400     7.0820    -5.0820 hn         1 X9U       0.455500
     40 H9         -17.3710     3.8910    -1.2400 ha         1 X9U       0.113000
     41 H10        -19.6620     8.0150    -3.3840 hn         1 X9U       0.151000
     42 H11        -18.5470     5.7120    -1.8950 ha         1 X9U       0.118000
     43 H12        -17.9960     7.8650    -7.4210 ha         1 X9U       0.123500
     44 H13        -18.0280     9.3120    -3.3860 ha         1 X9U       0.123500
     45 H14        -16.9940    11.3900    -4.1170 ha         1 X9U       0.120500
     46 H15        -16.1570    16.5710    -6.1200 hn         1 X9U       0.368000
     47 H16        -18.0220    15.9670    -4.5530 h4         1 X9U       0.150000
     48 H17        -18.3310    13.2880    -4.6350 ha         1 X9U       0.140000
     49 H18        -16.9920     9.9850    -8.1670 ha         1 X9U       0.120500
     50 H19        -14.9270    11.1690    -8.0000 h4         1 X9U       0.203000
     51 H20        -13.0750    13.9900    -9.1670 h1         1 X9U       0.057700
     52 H21        -12.8320    12.3090    -8.6400 h1         1 X9U       0.057700
     53 H22        -13.9930    12.6780    -9.9370 h1         1 X9U       0.057700
     54 C26        -13.5600    13.0340    -9.0020 c3         1 X9U       0.073300
     55 O          -14.2880    15.5030    -7.9510 o          1 X9U      -0.579000
@<TRIPOS>BOND
     1     1     6 ar  
     2     1     8 ar  
     3     1    32 1   
     4     2     3 ar  
     5     2    13 ar  
     6     2    33 1   
     7     3    11 ar  
     8     3    34 1   
     9     4     5 ar  
    10     4     9 ar  
    11     4    35 1   
    12     5     6 ar  
    13     5    36 1   
    14     6    37 1   
    15     7    13 1   
    16     7    38 1   
    17     7    39 1   
    18     8     9 ar  
    19     8    40 1   
    20     9    11 1   
    21    10    15 1   
    22    10    16 1   
    23    10    41 1   
    24    11    12 ar  
    25    12    15 ar  
    26    12    42 1   
    27    13    15 ar  
    28    14    17 ar  
    29    14    29 ar  
    30    14    43 1   
    31    16    17 1   
    32    16    18 2   
    33    17    19 ar  
    34    19    22 ar  
    35    19    44 1   
    36    20    21 1   
    37    20    23 2   
    38    20    24 1   
    39    21    31 1   
    40    21    55 2   
    41    22    25 ar  
    42    22    45 1   
    43    23    26 1   
    44    23    28 1   
    45    24    27 1   
    46    24    46 1   
    47    25    26 1   
    48    25    29 ar  
    49    26    30 2   
    50    27    28 2   
    51    27    47 1   
    52    28    48 1   
    53    29    49 1   
    54    30    31 1   
    55    30    50 1   
    56    31    54 1   
    57    51    54 1   
    58    52    54 1   
    59    53    54 1   
@<TRIPOS>SUBSTRUCTURE
     1 X9U         1 TEMP              0 ****  ****    0 ROOT
