@<TRIPOS>MOLECULE
X9U
   55    59     1     0     0
SMALL
No Charge or Current Charge


@<TRIPOS>ATOM
      1 C16        -17.4730     3.2770     1.0650 ca         1 X9U      -0.110500
      2 C21        -21.7470     3.9950    -3.3890 ca         1 X9U      -0.180000
      3 C20        -21.1930     3.5630    -2.1750 ca         1 X9U      -0.051000
      4 C19        -20.2580     3.2930     0.7170 ca         1 X9U      -0.104500
      5 C18        -19.7040     2.8710     1.9380 ca         1 X9U      -0.110500
      6 C17        -18.3110     2.8620     2.1130 ca         1 X9U      -0.111000
      7 N2         -21.7610     5.4230    -5.2800 nv         1 X9U      -1.068000
      8 C15        -18.0280     3.6990    -0.1550 ca         1 X9U      -0.104500
      9 C14        -19.4320     3.7170    -0.3560 cp         1 X9U      -0.021000
     10 N1         -19.2860     6.7380    -4.2680 ns         1 X9U      -0.176000
     11 C13        -20.0240     4.1670    -1.6560 cp         1 X9U      -0.079000
     12 C12        -19.4330     5.2140    -2.4060 ca         1 X9U      -0.052000
     13 C22        -21.1490     5.0290    -4.1230 ca         1 X9U       0.313000
     14 C23        -18.1170     8.8430    -7.1530 ca         1 X9U      -0.071500
     15 C11        -19.9650     5.6460    -3.6380 ca         1 X9U      -0.123000
     16 C10        -19.1050     7.1030    -5.6000 c          1 X9U       0.610700
     17 C9         -18.3590     8.4050    -5.8330 ca         1 X9U      -0.154600
     18 O1         -19.4960     6.4190    -6.5400 o          1 X9U      -0.575100
     19 C8         -17.8810     9.2060    -4.7680 ca         1 X9U      -0.071500
     20 C1         -15.6550    14.4490    -6.1270 cc         1 X9U      -0.250600
     21 C          -14.7960    14.5710    -7.3130 c          1 X9U       0.586600
     22 C7         -17.1980    10.4070    -5.0250 ca         1 X9U      -0.116500
     23 C2         -16.3390    13.3130    -5.8070 cd         1 X9U      -0.032800
     24 N          -15.9800    15.3860    -5.1410 na         1 X9U      -0.084000
     25 C6         -16.9750    10.8550    -6.3420 ca         1 X9U       0.003200
     26 C5         -16.2380    12.1140    -6.6140 cd         1 X9U      -0.068400
     27 C4         -16.9030    14.8440    -4.2400 cc         1 X9U      -0.148000
     28 C3         -17.1300    13.5610    -4.6630 cd         1 X9U      -0.187000
     29 C24        -17.4290    10.0430    -7.4030 ca         1 X9U      -0.116500
     30 C25        -15.4890    12.2520    -7.7780 cc         1 X9U      -0.051400
     31 N3         -14.7720    13.4120    -8.1190 n          1 X9U      -0.280000
     32 H1         -16.3930     3.2680     1.1970 ha         1 X9U       0.111500
     33 H2         -22.6520     3.5190    -3.7570 ha         1 X9U       0.116000
     34 H3         -21.6720     2.7490    -1.6360 ha         1 X9U       0.114000
     35 H4         -21.3400     3.3040     0.6080 ha         1 X9U       0.113000
     36 H5         -20.3550     2.5530     2.7500 ha         1 X9U       0.111500
     37 H6         -17.8820     2.5360     3.0580 ha         1 X9U       0.112000
     38 H7         -22.5000     4.8320    -5.6550 hn         1 X9U       0.455500
     39 H8         -21.1650     5.8740    -5.9760 hn         1 X9U       0.455500
     40 H9         -17.3610     4.0030    -0.9580 ha         1 X9U       0.113000
     41 H10        -18.8490     7.3700    -3.6110 hn         1 X9U       0.151000
     42 H11        -18.5450     5.7070    -2.0160 ha         1 X9U       0.118000
     43 H12        -18.4650     8.2530    -8.0000 ha         1 X9U       0.123500
     44 H13        -18.0190     8.9100    -3.7310 ha         1 X9U       0.123500
     45 H14        -16.7970    10.9620    -4.1830 ha         1 X9U       0.120500
     46 H15        -15.6160    16.3350    -5.1010 hn         1 X9U       0.368000
     47 H16        -17.3170    15.4060    -3.4100 h4         1 X9U       0.150000
     48 H17        -17.8290    12.8770    -4.1930 ha         1 X9U       0.140000
     49 H18        -17.2830    10.3490    -8.4350 ha         1 X9U       0.120500
     50 H19        -15.3440    11.4610    -8.5050 h4         1 X9U       0.203000
     51 H20        -12.9040    13.6320    -9.0960 h1         1 X9U       0.057700
     52 H21        -14.0280    12.5070    -9.9050 h1         1 X9U       0.057700
     53 H22        -14.3080    14.2650   -10.0040 h1         1 X9U       0.057700
     54 C26        -13.9560    13.4530    -9.3540 c3         1 X9U       0.073300
     55 O          -14.1750    15.5920    -7.5830 o          1 X9U      -0.579000
@<TRIPOS>BOND
     1     1     6 ar  
     2     1     8 ar  
     3     1    32 1   
     4     2     3 ar  
     5     2    13 ar  
     6     2    33 1   
     7     3    11 ar  
     8     3    34 1   
     9     4     5 ar  
    10     4     9 ar  
    11     4    35 1   
    12     5     6 ar  
    13     5    36 1   
    14     6    37 1   
    15     7    13 1   
    16     7    38 1   
    17     7    39 1   
    18     8     9 ar  
    19     8    40 1   
    20     9    11 1   
    21    10    15 1   
    22    10    16 1   
    23    10    41 1   
    24    11    12 ar  
    25    12    15 ar  
    26    12    42 1   
    27    13    15 ar  
    28    14    17 ar  
    29    14    29 ar  
    30    14    43 1   
    31    16    17 1   
    32    16    18 2   
    33    17    19 ar  
    34    19    22 ar  
    35    19    44 1   
    36    20    21 1   
    37    20    23 2   
    38    20    24 1   
    39    21    31 1   
    40    21    55 2   
    41    22    25 ar  
    42    22    45 1   
    43    23    26 1   
    44    23    28 1   
    45    24    27 1   
    46    24    46 1   
    47    25    26 1   
    48    25    29 ar  
    49    26    30 2   
    50    27    28 2   
    51    27    47 1   
    52    28    48 1   
    53    29    49 1   
    54    30    31 1   
    55    30    50 1   
    56    31    54 1   
    57    51    54 1   
    58    52    54 1   
    59    53    54 1   
@<TRIPOS>SUBSTRUCTURE
     1 X9U         1 TEMP              0 ****  ****    0 ROOT
