@<TRIPOS>MOLECULE
X9V
   79    85     1     0     0
SMALL
bcc


@<TRIPOS>ATOM
      1 C2          14.0860     8.6290    -7.8530 c          1 X9V       0.601600
      2 C4          13.1190     8.8450    -5.5970 c6         1 X9V       0.174000
      3 C5          11.8190     8.0610    -5.7570 c6         1 X9V      -0.092400
      4 C6          11.4070     7.4790    -4.4140 c6         1 X9V      -0.070400
      5 C7          12.4390     6.4650    -3.9470 c6         1 X9V      -0.035100
      6 C8          13.8510     6.9830    -4.0380 ca         1 X9V      -0.055300
      7 C11         16.5110     7.8190    -4.2070 ca         1 X9V      -0.111000
      8 C12         15.5200     8.4770    -4.9120 ca         1 X9V      -0.112000
      9 C15         18.4290     5.6150    -3.2030 ca         1 X9V      -0.232300
     10 C16         19.3900     4.9430    -2.4460 ca         1 X9V       0.389200
     11 C18         18.1360     5.0450    -0.5930 ca         1 X9V       0.542300
     12 C21         16.6150     5.4480     0.8440 cc         1 X9V       0.537400
     13 N22         16.1570     5.9630    -0.3320 na         1 X9V      -0.256300
     14 C23         17.1090     5.7200    -1.2820 ca         1 X9V      -0.189500
     15 C24         15.8790     5.5160     2.0810 cc         1 X9V      -0.329200
     16 C30         15.3010     4.7900     5.5610 c6         1 X9V       0.074000
     17 C31         15.4360     5.9790     6.5060 c6         1 X9V      -0.126900
     18 C32         15.3570     5.4900     7.9460 c6         1 X9V       0.131400
     19 C34         14.0460     3.6400     7.3720 c6         1 X9V       0.131400
     20 C35         14.0390     4.0030     5.8940 c6         1 X9V      -0.126900
     21 C36         14.5470     9.4440    -9.0200 cc         1 X9V       0.459900
     22 C38         15.1120    10.8920   -10.3920 cd         1 X9V       0.559300
     23 O1          14.1840     7.4180    -7.8730 o          1 X9V      -0.538100
     24 N3          13.6050     9.3770    -6.8580 ns         1 X9V      -0.556900
     25 C9          14.8540     6.3390    -3.3180 ca         1 X9V      -0.130000
     26 C10         16.1840     6.7360    -3.3910 cp         1 X9V      -0.030000
     27 C13         14.1890     8.0690    -4.8480 ca         1 X9V      -0.085300
     28 C14         17.2270     6.0280    -2.6300 cp         1 X9V       0.004000
     29 N17         19.2690     4.6500    -1.1590 nb         1 X9V      -0.608000
     30 N19         17.7970     4.8890     0.7200 nd         1 X9V      -0.659700
     31 C25         16.2540     4.8930     3.2570 cd         1 X9V      -0.062300
     32 N26         15.3310     5.2030     4.1690 na         1 X9V       0.116400
     33 N27         14.3750     5.9920     3.6770 nd         1 X9V      -0.524800
     34 C28         14.6800     6.1980     2.4110 cc         1 X9V       0.341600
     35 C29         13.8170     7.0550     1.5530 c3         1 X9V      -0.128400
     36 O33         14.1680     4.7770     8.1960 os         1 X9V      -0.396600
     37 N37         14.5790    10.7240    -9.1430 nd         1 X9V      -0.723000
     38 N39         15.3810     9.7650   -10.9800 nc         1 X9V      -0.363300
     39 O40         15.0090     8.8090   -10.0780 os         1 X9V      -0.085100
     40 C41         15.3600    12.2400   -10.9960 c3         1 X9V      -0.071300
     41 C42         16.2910    13.0190   -10.0590 c3         1 X9V      -0.084767
     42 C43         14.0170    12.9710   -11.1140 c3         1 X9V      -0.084767
     43 C44         16.0040    12.1060   -12.3740 c3         1 X9V      -0.084767
     44 H1          12.8880     9.7310    -4.9990 h1         1 X9V       0.059700
     45 H2          11.0500     8.7300    -6.1470 hc         1 X9V       0.060700
     46 H3          11.9470     7.2540    -6.4810 hc         1 X9V       0.060700
     47 H4          11.3080     8.2810    -3.6760 hc         1 X9V       0.045700
     48 H5          10.4280     7.0030    -4.4900 hc         1 X9V       0.045700
     49 H6          12.2330     6.1490    -2.9220 hc         1 X9V       0.054700
     50 H7          12.3610     5.5640    -4.5630 hc         1 X9V       0.054700
     51 H8          17.5360     8.1600    -4.2740 ha         1 X9V       0.140000
     52 H9          15.7950     9.3270    -5.5250 ha         1 X9V       0.132000
     53 H10         18.6170     5.7960    -4.2530 ha         1 X9V       0.145000
     54 H11         20.3090     4.6260    -2.9270 h4         1 X9V       0.022100
     55 H12         15.2810     6.4390    -0.4800 hn         1 X9V       0.312700
     56 H13         16.1670     4.1360     5.6920 h1         1 X9V       0.060700
     57 H14         16.3890     6.4880     6.3470 hc         1 X9V       0.070450
     58 H15         14.6370     6.6990     6.3130 hc         1 X9V       0.070450
     59 H16         16.2340     4.8630     8.1680 h1         1 X9V       0.048950
     60 H17         15.3770     6.3350     8.6340 h1         1 X9V       0.048950
     61 H18         13.1130     3.1460     7.6450 h1         1 X9V       0.048950
     62 H19         14.8640     2.9320     7.5720 h1         1 X9V       0.048950
     63 H20         13.1550     4.6020     5.6610 hc         1 X9V       0.070450
     64 H21         13.9890     3.0900     5.2960 hc         1 X9V       0.070450
     65 H22         13.5820    10.3780    -6.9860 hn         1 X9V       0.344500
     66 H23         14.5820     5.4840    -2.7080 ha         1 X9V       0.133000
     67 H25         17.0990     4.2630     3.4850 h4         1 X9V       0.194000
     68 H26         12.9960     7.4670     2.1360 hc         1 X9V       0.050033
     69 H27         14.3770     7.8910     1.1290 hc         1 X9V       0.050033
     70 H28         13.3820     6.4910     0.7250 hc         1 X9V       0.050033
     71 H29         15.8480    13.1550    -9.0720 hc         1 X9V       0.044367
     72 H30         17.2480    12.5100    -9.9370 hc         1 X9V       0.044367
     73 H31         16.4870    14.0070   -10.4780 hc         1 X9V       0.044367
     74 H32         13.5310    13.0810   -10.1450 hc         1 X9V       0.044367
     75 H33         14.1790    13.9690   -11.5240 hc         1 X9V       0.044367
     76 H34         13.3350    12.4420   -11.7810 hc         1 X9V       0.044367
     77 H35         16.9680    11.5990   -12.3220 hc         1 X9V       0.044367
     78 H36         15.3670    11.5580   -13.0680 hc         1 X9V       0.044367
     79 H37         16.1730    13.1000   -12.7910 hc         1 X9V       0.044367
@<TRIPOS>BOND
     1     1    21 1   
     2     1    23 2   
     3     1    24 1   
     4     2     3 1   
     5     2    24 1   
     6     2    27 1   
     7     2    44 1   
     8     3     4 1   
     9     3    45 1   
    10     3    46 1   
    11     4     5 1   
    12     4    47 1   
    13     4    48 1   
    14     5     6 1   
    15     5    49 1   
    16     5    50 1   
    17     6    25 ar  
    18     6    27 ar  
    19     7     8 ar  
    20     7    26 ar  
    21     7    51 1   
    22     8    27 ar  
    23     8    52 1   
    24     9    10 ar  
    25     9    28 ar  
    26     9    53 1   
    27    10    29 ar  
    28    10    54 1   
    29    11    14 ar  
    30    11    29 ar  
    31    11    30 1   
    32    12    13 1   
    33    12    15 1   
    34    12    30 2   
    35    13    14 1   
    36    13    55 1   
    37    14    28 ar  
    38    15    31 2   
    39    15    34 1   
    40    16    17 1   
    41    16    20 1   
    42    16    32 1   
    43    16    56 1   
    44    17    18 1   
    45    17    57 1   
    46    17    58 1   
    47    18    36 1   
    48    18    59 1   
    49    18    60 1   
    50    19    20 1   
    51    19    36 1   
    52    19    61 1   
    53    19    62 1   
    54    20    63 1   
    55    20    64 1   
    56    21    37 2   
    57    21    39 1   
    58    22    37 1   
    59    22    38 2   
    60    22    40 1   
    61    24    65 1   
    62    25    26 ar  
    63    25    66 1   
    64    26    28 1   
    65    31    32 1   
    66    31    67 1   
    67    32    33 1   
    68    33    34 2   
    69    34    35 1   
    70    35    68 1   
    71    35    69 1   
    72    35    70 1   
    73    38    39 1   
    74    40    41 1   
    75    40    42 1   
    76    40    43 1   
    77    41    71 1   
    78    41    72 1   
    79    41    73 1   
    80    42    74 1   
    81    42    75 1   
    82    42    76 1   
    83    43    77 1   
    84    43    78 1   
    85    43    79 1   
@<TRIPOS>SUBSTRUCTURE
     1 X9V         1 TEMP              0 ****  ****    0 ROOT
