@<TRIPOS>MOLECULE
X9V
   79    85     1     0     0
SMALL
No Charge or Current Charge


@<TRIPOS>ATOM
      1 C2          14.1930     8.6630    -7.6640 c          1 X9V       0.534600
      2 C4          13.3540     9.1880    -5.3030 c6         1 X9V       0.174000
      3 C5          11.9280     8.5880    -5.2690 c6         1 X9V      -0.092400
      4 C6          11.6100     7.9890    -3.8850 c6         1 X9V      -0.070400
      5 C7          12.5930     6.8440    -3.5640 c6         1 X9V      -0.035100
      6 C8          14.0600     7.2400    -3.7650 ca         1 X9V      -0.055300
      7 C11         16.7750     7.9210    -4.0570 ca         1 X9V      -0.093000
      8 C12         15.7870     8.6730    -4.7120 ca         1 X9V      -0.094000
      9 C15         18.6950     5.6270    -3.1710 ca         1 X9V      -0.149000
     10 C16         19.6570     4.8740    -2.4490 ca         1 X9V       0.323900
     11 C18         18.3750     4.8990    -0.5450 ca         1 X9V       0.477000
     12 C21         16.7690     5.3130     0.8560 cc         1 X9V       0.537400
     13 N22         16.4110     5.9020    -0.3500 na         1 X9V      -0.306600
     14 C23         17.4220     5.6100    -1.2040 ca         1 X9V      -0.124200
     15 C24         15.9360     5.3870     2.0240 cc         1 X9V      -0.263900
     16 C30         15.1240     4.7150     5.4870 c6         1 X9V       0.103300
     17 C31         15.0700     5.9430     6.4360 c6         1 X9V      -0.126900
     18 C32         14.9210     5.4800     7.9030 c6         1 X9V       0.154600
     19 C34         13.8220     3.4220     7.2460 c6         1 X9V       0.154600
     20 C35         13.9140     3.7770     5.7450 c6         1 X9V      -0.126900
     21 C36         14.5840     9.3630    -8.9370 cc         1 X9V       0.415500
     22 C38         15.0030    10.7480   -10.4840 cd         1 X9V       0.559300
     23 O1          14.2560     7.4500    -7.4880 o          1 X9V      -0.538100
     24 N3          13.7320     9.5300    -6.6830 ns         1 X9V      -0.489900
     25 C9          15.0600     6.4890    -3.1190 ca         1 X9V      -0.112000
     26 C10         16.4310     6.8190    -3.2430 cp         1 X9V      -0.030000
     27 C13         14.4230     8.3340    -4.5870 ca         1 X9V      -0.085300
     28 C14         17.4890     6.0290    -2.5440 cp         1 X9V       0.004000
     29 N17         19.5080     4.5070    -1.1470 nb         1 X9V      -0.608000
     30 N19         17.9670     4.6930     0.7680 nd         1 X9V      -0.659700
     31 C25         16.2780     4.8210     3.2180 cd         1 X9V      -0.095000
     32 N26         15.2080     5.1240     4.0620 na         1 X9V       0.137800
     33 N27         14.2100     5.8590     3.4310 nd         1 X9V      -0.524800
     34 C28         14.6760     6.0000     2.2070 cc         1 X9V       0.276300
     35 C29         13.9020     6.7440     1.1520 c3         1 X9V      -0.128400
     36 O33         13.7590     4.6320     8.0320 os         1 X9V      -0.443000
     37 N37         14.5350    10.6680    -9.1900 nd         1 X9V      -0.723000
     38 N39         15.3260     9.5790   -11.0180 nc         1 X9V      -0.363300
     39 O40         15.0510     8.6440    -9.9960 os         1 X9V      -0.040700
     40 C41         15.1350    12.0800   -11.2320 c3         1 X9V      -0.071300
     41 C42         16.1080    13.0140   -10.4600 c3         1 X9V      -0.084767
     42 C43         13.7410    12.7620   -11.3260 c3         1 X9V      -0.084767
     43 C44         15.6840    11.8860   -12.6770 c3         1 X9V      -0.084767
     44 H1          13.3110    10.1370    -4.7480 h1         1 X9V       0.059700
     45 H2          11.1920     9.3630    -5.5260 hc         1 X9V       0.060700
     46 H3          11.8320     7.8020    -6.0300 hc         1 X9V       0.060700
     47 H4          11.6800     8.7700    -3.1150 hc         1 X9V       0.045700
     48 H5          10.5770     7.6140    -3.8620 hc         1 X9V       0.045700
     49 H6          12.4310     6.5080    -2.5300 hc         1 X9V       0.054700
     50 H7          12.3680     5.9790    -4.2050 hc         1 X9V       0.054700
     51 H8          17.8190     8.2050    -4.1680 ha         1 X9V       0.122000
     52 H9          16.0860     9.5250    -5.3190 ha         1 X9V       0.114000
     53 H10         18.8860     5.8790    -4.2100 ha         1 X9V       0.127000
     54 H11         20.5790     4.5570    -2.9340 h4         1 X9V       0.022100
     55 H12         15.5880     6.4560    -0.5300 hn         1 X9V       0.363000
     56 H13         16.0390     4.1520     5.7220 h1         1 X9V       0.060700
     57 H14         15.9800     6.5480     6.3250 hc         1 X9V       0.070450
     58 H15         14.2240     6.5920     6.1730 hc         1 X9V       0.070450
     59 H16         15.8150     4.9260     8.2250 h1         1 X9V       0.048950
     60 H17         14.8030     6.3520     8.5630 h1         1 X9V       0.048950
     61 H18         12.9190     2.8240     7.4370 h1         1 X9V       0.048950
     62 H19         14.6960     2.8300     7.5560 h1         1 X9V       0.048950
     63 H20         12.9800     4.2630     5.4300 hc         1 X9V       0.070450
     64 H21         14.0110     2.8600     5.1490 hc         1 X9V       0.070450
     65 H22         13.7140    10.5090    -6.9530 hn         1 X9V       0.344500
     66 H23         14.7700     5.6290    -2.5200 ha         1 X9V       0.115000
     67 H25         17.1500     4.2560     3.5270 h4         1 X9V       0.176000
     68 H26         12.9480     7.1090     1.5490 hc         1 X9V       0.050033
     69 H27         14.4610     7.6170     0.7950 hc         1 X9V       0.050033
     70 H28         13.6710     6.0940     0.3000 hc         1 X9V       0.050033
     71 H29         15.7360    13.2240    -9.4490 hc         1 X9V       0.044367
     72 H30         17.0980    12.5510   -10.3650 hc         1 X9V       0.044367
     73 H31         16.2290    13.9730   -10.9780 hc         1 X9V       0.044367
     74 H32         13.3340    12.9690   -10.3290 hc         1 X9V       0.044367
     75 H33         13.8040    13.7140   -11.8670 hc         1 X9V       0.044367
     76 H34         13.0280    12.1180   -11.8550 hc         1 X9V       0.044367
     77 H35         16.6790    11.4240   -12.6620 hc         1 X9V       0.044367
     78 H36         15.0190    11.2460   -13.2700 hc         1 X9V       0.044367
     79 H37         15.7720    12.8480   -13.1960 hc         1 X9V       0.044367
@<TRIPOS>BOND
     1     1    21 1   
     2     1    23 2   
     3     1    24 1   
     4     2     3 1   
     5     2    24 1   
     6     2    27 1   
     7     2    44 1   
     8     3     4 1   
     9     3    45 1   
    10     3    46 1   
    11     4     5 1   
    12     4    47 1   
    13     4    48 1   
    14     5     6 1   
    15     5    49 1   
    16     5    50 1   
    17     6    25 ar  
    18     6    27 ar  
    19     7     8 ar  
    20     7    26 ar  
    21     7    51 1   
    22     8    27 ar  
    23     8    52 1   
    24     9    10 ar  
    25     9    28 ar  
    26     9    53 1   
    27    10    29 ar  
    28    10    54 1   
    29    11    14 ar  
    30    11    29 ar  
    31    11    30 1   
    32    12    13 1   
    33    12    15 1   
    34    12    30 2   
    35    13    14 1   
    36    13    55 1   
    37    14    28 ar  
    38    15    31 2   
    39    15    34 1   
    40    16    17 1   
    41    16    20 1   
    42    16    32 1   
    43    16    56 1   
    44    17    18 1   
    45    17    57 1   
    46    17    58 1   
    47    18    36 1   
    48    18    59 1   
    49    18    60 1   
    50    19    20 1   
    51    19    36 1   
    52    19    61 1   
    53    19    62 1   
    54    20    63 1   
    55    20    64 1   
    56    21    37 2   
    57    21    39 1   
    58    22    37 1   
    59    22    38 2   
    60    22    40 1   
    61    24    65 1   
    62    25    26 ar  
    63    25    66 1   
    64    26    28 1   
    65    31    32 1   
    66    31    67 1   
    67    32    33 1   
    68    33    34 2   
    69    34    35 1   
    70    35    68 1   
    71    35    69 1   
    72    35    70 1   
    73    38    39 1   
    74    40    41 1   
    75    40    42 1   
    76    40    43 1   
    77    41    71 1   
    78    41    72 1   
    79    41    73 1   
    80    42    74 1   
    81    42    75 1   
    82    42    76 1   
    83    43    77 1   
    84    43    78 1   
    85    43    79 1   
@<TRIPOS>SUBSTRUCTURE
     1 X9V         1 TEMP              0 ****  ****    0 ROOT
