@<TRIPOS>MOLECULE
X9W
   17    16     1     0     0
SMALL
abcg2


@<TRIPOS>ATOM
      1 C1         -18.1780   -34.3640    14.5030 c          1 X9W       0.735000
      2 C2         -17.4570   -35.3120    13.5210 c3         1 X9W      -0.281700
      3 C3         -19.6920   -35.9470    11.6770 c3         1 X9W      -0.443100
      4 C4         -18.3550   -33.3800    11.4830 c3         1 X9W      -0.443100
      5 O1         -19.4210   -34.4700    14.4870 o          1 X9W      -0.714000
      6 O2         -17.0490   -35.7330    10.8440 o          1 X9W      -0.583000
      7 O3         -16.0700   -35.0930    13.4990 oh         1 X9W      -0.618000
      8 O4         -17.4810   -33.6170    15.2010 o          1 X9W      -0.714000
      9 P1         -18.0750   -35.1450    11.7870 p5         1 X9W       1.175000
     10 H2         -17.7010   -36.3440    13.8240 h1         1 X9W       0.030700
     11 H5         -20.0590   -35.8830    10.6530 hc         1 X9W       0.073033
     12 H3         -19.5950   -36.9990    11.9460 hc         1 X9W       0.073033
     13 H4         -20.4030   -35.4750    12.3500 hc         1 X9W       0.073033
     14 H6         -18.6370   -33.2350    10.4400 hc         1 X9W       0.073033
     15 H7         -19.1420   -32.9820    12.1190 hc         1 X9W       0.073033
     16 H8         -17.4330   -32.8300    11.6720 hc         1 X9W       0.073033
     17 H1         -15.7040   -35.6130    12.7740 ho         1 X9W       0.416000
@<TRIPOS>BOND
     1     1     2 1   
     2     1     5 1   
     3     1     8 1   
     4     2     7 1   
     5     2     9 1   
     6     2    10 1   
     7     3     9 1   
     8     3    11 1   
     9     3    12 1   
    10     3    13 1   
    11     4     9 1   
    12     4    14 1   
    13     4    15 1   
    14     4    16 1   
    15     6     9 2   
    16     7    17 1   
@<TRIPOS>SUBSTRUCTURE
     1 X9W         1 TEMP              0 ****  ****    0 ROOT
