@<TRIPOS>MOLECULE
X9W
   17    16     1     0     0
SMALL
No Charge or Current Charge


@<TRIPOS>ATOM
      1 C1         -18.4290   -34.8630    14.4110 c          1 X9W       0.735000
      2 C2         -17.3400   -35.3650    13.4510 c3         1 X9W      -0.281700
      3 C3         -19.8790   -35.6370    11.8430 c3         1 X9W      -0.443100
      4 C4         -18.0990   -33.3760    11.3340 c3         1 X9W      -0.443100
      5 O1         -19.0130   -35.6990    15.0820 o          1 X9W      -0.714000
      6 O2         -17.3820   -35.9580    10.7340 o          1 X9W      -0.583000
      7 O3         -16.0050   -34.7730    13.6770 oh         1 X9W      -0.618000
      8 O4         -18.5910   -33.6600    14.5420 o          1 X9W      -0.714000
      9 P1         -18.1080   -35.1610    11.7680 p5         1 X9W       1.175000
     10 H2         -17.2720   -36.4530    13.5760 h1         1 X9W       0.030700
     11 H5         -20.2770   -35.6820    10.8230 hc         1 X9W       0.073033
     12 H3         -19.9700   -36.6220    12.3130 hc         1 X9W       0.073033
     13 H4         -20.4450   -34.8980    12.4190 hc         1 X9W       0.073033
     14 H6         -18.3470   -33.2670    10.2730 hc         1 X9W       0.073033
     15 H7         -18.8390   -32.8410    11.9370 hc         1 X9W       0.073033
     16 H8         -17.1020   -32.9640    11.5220 hc         1 X9W       0.073033
     17 H1         -15.3560   -35.2050    13.0740 ho         1 X9W       0.416000
@<TRIPOS>BOND
     1     1     2 1   
     2     1     5 1   
     3     1     8 1   
     4     2     7 1   
     5     2     9 1   
     6     2    10 1   
     7     3     9 1   
     8     3    11 1   
     9     3    12 1   
    10     3    13 1   
    11     4     9 1   
    12     4    14 1   
    13     4    15 1   
    14     4    16 1   
    15     6     9 2   
    16     7    17 1   
@<TRIPOS>SUBSTRUCTURE
     1 X9W         1 TEMP              0 ****  ****    0 ROOT
