@<TRIPOS>MOLECULE
X9X
   26    25     1     0     0
SMALL
bcc


@<TRIPOS>ATOM
      1 OAA          4.3120     0.3050    -0.3400 oh         1 X9X      -0.585800
      2 CAG          3.1450     0.4510     0.4350 c3         1 X9X       0.111400
      3 CAI          1.9410     0.0180    -0.3870 c3         1 X9X       0.114100
      4 OAC          2.0360    -1.3350    -0.7640 oh         1 X9X      -0.579800
      5 CAK          0.6440     0.3620     0.3740 c3         1 X9X       0.085600
      6 OAE          0.4790     1.7620     0.3880 oh         1 X9X      -0.593300
      7 CAL         -0.5720    -0.4340    -0.1580 c3         1 X9X       0.085600
      8 OAF         -0.5710    -1.7290     0.4010 oh         1 X9X      -0.593300
      9 CAJ         -1.9080     0.2950     0.0700 c3         1 X9X       0.114100
     10 OAD         -1.9470     1.4700    -0.7270 oh         1 X9X      -0.579800
     11 CAH         -3.0990    -0.6050    -0.2130 c3         1 X9X       0.111400
     12 OAB         -4.2770     0.1370    -0.0020 oh         1 X9X      -0.585800
     13 H1           5.0630     0.5620     0.2010 ho         1 X9X       0.405000
     14 H2           3.1840    -0.1660     1.3460 h1         1 X9X       0.028200
     15 H3           3.0050     1.4890     0.7600 h1         1 X9X       0.028200
     16 H4           1.9430     0.5890    -1.3270 h1         1 X9X       0.091200
     17 H5           1.8580    -1.8870     0.0040 ho         1 X9X       0.406500
     18 H6           0.7700     0.0560     1.4250 h1         1 X9X       0.068700
     19 H7          -0.2300     1.9950    -0.2300 ho         1 X9X       0.420000
     20 H8          -0.4700    -0.5860    -1.2390 h1         1 X9X       0.068700
     21 H9          -0.6750    -1.6520     1.3570 ho         1 X9X       0.420000
     22 H10         -1.9720     0.6410     1.1080 h1         1 X9X       0.091200
     23 H11         -2.0010     1.2130    -1.6560 ho         1 X9X       0.406500
     24 H12         -3.0330    -0.9790    -1.2460 h1         1 X9X       0.028200
     25 H13         -3.0540    -1.4790     0.4440 h1         1 X9X       0.028200
     26 H14         -5.0230    -0.4580    -0.1130 ho         1 X9X       0.405000
@<TRIPOS>BOND
     1     1     2 1   
     2     1    13 1   
     3     2     3 1   
     4     2    14 1   
     5     2    15 1   
     6     3     4 1   
     7     3     5 1   
     8     3    16 1   
     9     4    17 1   
    10     5     6 1   
    11     5     7 1   
    12     5    18 1   
    13     6    19 1   
    14     7     8 1   
    15     7     9 1   
    16     7    20 1   
    17     8    21 1   
    18     9    10 1   
    19     9    11 1   
    20     9    22 1   
    21    10    23 1   
    22    11    12 1   
    23    11    24 1   
    24    11    25 1   
    25    12    26 1   
@<TRIPOS>SUBSTRUCTURE
     1 X9X         1 TEMP              0 ****  ****    0 ROOT
