@<TRIPOS>MOLECULE
X9X
   26    25     1     0     0
SMALL
No Charge or Current Charge


@<TRIPOS>ATOM
      1 OAA          4.5820     0.1830    -0.2510 oh         1 X9X      -0.708000
      2 CAG          3.3410     0.6260     0.3350 c3         1 X9X       0.134600
      3 CAI          2.1200    -0.1720    -0.2260 c3         1 X9X       0.137300
      4 OAC          2.2340    -1.5680     0.1250 oh         1 X9X      -0.702000
      5 CAK          0.7440     0.3860     0.2830 c3         1 X9X       0.108800
      6 OAE          0.6010     1.7540    -0.1340 oh         1 X9X      -0.715500
      7 CAL         -0.4980    -0.4390    -0.2210 c3         1 X9X       0.108800
      8 OAF         -0.4080    -1.8000     0.2670 oh         1 X9X      -0.715500
      9 CAJ         -1.8860     0.1850     0.1670 c3         1 X9X       0.137300
     10 OAD         -2.0150     1.5250    -0.3420 oh         1 X9X      -0.702000
     11 CAH         -3.0950    -0.6140    -0.3910 c3         1 X9X       0.134600
     12 OAB         -4.3020     0.1500    -0.2000 oh         1 X9X      -0.708000
     13 H1           5.3070     0.6740     0.2030 ho         1 X9X       0.504000
     14 H2           3.3710     0.5090     1.4270 h1         1 X9X       0.028200
     15 H3           3.1990     1.6940     0.1270 h1         1 X9X       0.028200
     16 H4           2.1290    -0.0640    -1.3200 h1         1 X9X       0.091200
     17 H5           1.2890    -1.8900     0.1520 ho         1 X9X       0.505500
     18 H6           0.7480     0.3430     1.3820 h1         1 X9X       0.068700
     19 H7          -0.3870     1.8790    -0.2510 ho         1 X9X       0.519000
     20 H8          -0.4480    -0.4530    -1.3200 h1         1 X9X       0.068700
     21 H9          -0.9520    -1.8770     1.0890 ho         1 X9X       0.519000
     22 H10         -1.9680     0.1980     1.2640 h1         1 X9X       0.091200
     23 H11         -2.9970     1.6250    -0.4440 ho         1 X9X       0.505500
     24 H12         -2.9370    -0.8170    -1.4590 h1         1 X9X       0.028200
     25 H13         -3.1670    -1.5800     0.1270 h1         1 X9X       0.028200
     26 H14         -5.0570    -0.4220    -0.4790 ho         1 X9X       0.504000
@<TRIPOS>BOND
     1     1     2 1   
     2     1    13 1   
     3     2     3 1   
     4     2    14 1   
     5     2    15 1   
     6     3     4 1   
     7     3     5 1   
     8     3    16 1   
     9     4    17 1   
    10     5     6 1   
    11     5     7 1   
    12     5    18 1   
    13     6    19 1   
    14     7     8 1   
    15     7     9 1   
    16     7    20 1   
    17     8    21 1   
    18     9    10 1   
    19     9    11 1   
    20     9    22 1   
    21    10    23 1   
    22    11    12 1   
    23    11    24 1   
    24    11    25 1   
    25    12    26 1   
@<TRIPOS>SUBSTRUCTURE
     1 X9X         1 TEMP              0 ****  ****    0 ROOT
