@<TRIPOS>MOLECULE
X9Y
   80    85     1     0     0
SMALL
No Charge or Current Charge


@<TRIPOS>ATOM
      1 C1          20.6840     6.5570     3.4440 cp         1 X9Y      -0.036000
      2 C2          22.0420     6.2150     3.2530 ca         1 X9Y      -0.066000
      3 C3          20.3760     7.4420     4.5010 ca         1 X9Y      -0.093000
      4 C7          17.3420     5.1210     2.2460 ca         1 X9Y       0.347900
      5 C8          19.7750     5.8270     1.1640 ca         1 X9Y       0.045400
      6 C9          18.7210     5.3120     0.4250 ca         1 X9Y       0.336500
      7 C10         20.4470     5.7360    -0.9040 cc         1 X9Y       0.533400
      8 C11         21.1820     5.8070    -2.1440 cc         1 X9Y      -0.260900
      9 C12         22.4990     6.2880    -2.3030 cc         1 X9Y       0.313300
     10 C13         20.7530     5.4210    -3.3920 cd         1 X9Y      -0.105300
     11 C15         23.3760     6.8110    -1.1960 c3         1 X9Y      -0.120400
     12 C16         23.0660     6.7390     4.0680 ca         1 X9Y      -0.071300
     13 C19         24.5100     6.3360     3.7690 c3         1 X9Y      -0.033100
     14 C20         24.7950     9.1590     5.2330 c3         1 X9Y      -0.082400
     15 C21         25.3730     7.5200     3.2820 c3         1 X9Y      -0.072400
     16 C22         25.8890     8.4420     4.4080 c3         1 X9Y      -0.069400
     17 C24         23.2410     9.7530     9.4630 cc         1 X9Y       0.418500
     18 C27         19.6070    11.8160     9.7200 c3         1 X9Y      -0.084100
     19 C30         22.4070     4.0760    -6.0430 c3         1 X9Y      -0.103100
     20 C31         22.7460     6.5770    -6.4520 c3         1 X9Y      -0.103100
     21 C32         19.4490     4.7950    -3.8490 c3         1 X9Y      -0.041800
     22 C4          21.3830     7.9710     5.3230 ca         1 X9Y      -0.107000
     23 C5          19.6050     6.0040     2.5630 cp         1 X9Y       0.058000
     24 C6          18.3410     5.6360     3.0910 ca         1 X9Y      -0.179000
     25 N1          17.5230     4.9570     0.9160 nb         1 X9Y      -0.668000
     26 N2          19.1530     5.2610    -0.8520 na         1 X9Y      -0.423300
     27 N3          20.8570     6.0990     0.3170 nd         1 X9Y      -0.577100
     28 N4          22.9240     6.2420    -3.5460 nd         1 X9Y      -0.530800
     29 N5          21.8390     5.7190    -4.2400 na         1 X9Y       0.137800
     30 C17         22.7430     7.6290     5.1230 ca         1 X9Y      -0.084300
     31 C18         23.8560     8.2080     6.0170 c3         1 X9Y       0.161000
     32 O1          25.0930     8.4350     8.6110 o          1 X9Y      -0.545100
     33 N7          22.0590    10.3450     9.3190 nd         1 X9Y      -0.723000
     34 C25         21.8440    10.9090    10.5570 cd         1 X9Y       0.560300
     35 N8          22.8190    10.6940    11.4290 nc         1 X9Y      -0.364300
     36 O2          23.7600     9.9220    10.7120 os         1 X9Y      -0.042700
     37 C26         20.5950    11.7210    10.9200 c3         1 X9Y      -0.071300
     38 C28         21.0070    13.1620    11.3290 c3         1 X9Y      -0.084100
     39 C29         19.8570    11.0430    12.1080 c3         1 X9Y      -0.084100
     40 H1          22.3030     5.5250     2.4550 ha         1 X9Y       0.129000
     41 H2          19.3450     7.7380     4.6760 ha         1 X9Y       0.115000
     42 H3          22.4560     9.3710     7.1590 hn         1 X9Y       0.341500
     43 H4          16.3710     4.8320     2.6450 h4         1 X9Y       0.021100
     44 H5          20.8950     5.5950    -6.1010 h1         1 X9Y       0.054700
     45 H6          24.3550     7.1220    -1.5790 hc         1 X9Y       0.054700
     46 H7          22.9190     7.6810    -0.7120 hc         1 X9Y       0.054700
     47 H8          23.5480     6.0400    -0.4360 hc         1 X9Y       0.054700
     48 H9          24.5290     5.5640     2.9890 hc         1 X9Y       0.050200
     49 H10         24.9740     5.8710     4.6470 hc         1 X9Y       0.050200
     50 H11         25.3090     9.8200     5.9420 hc         1 X9Y       0.049700
     51 H12         24.1990     9.8090     4.5820 hc         1 X9Y       0.049700
     52 H13         26.2450     7.1160     2.7520 hc         1 X9Y       0.046200
     53 H14         24.8090     8.1080     2.5470 hc         1 X9Y       0.046200
     54 H15         26.5250     7.8600     5.0860 hc         1 X9Y       0.041200
     55 H16         26.5380     9.2040     3.9600 hc         1 X9Y       0.041200
     56 H17         18.7160    12.3970     9.9890 hc         1 X9Y       0.044144
     57 H18         20.0790    12.3050     8.8590 hc         1 X9Y       0.044144
     58 H19         19.2730    10.8190     9.4050 hc         1 X9Y       0.044144
     59 H20         21.7650     3.3250    -5.5680 hc         1 X9Y       0.051033
     60 H21         22.3900     3.9030    -7.1250 hc         1 X9Y       0.051033
     61 H22         23.4330     3.9260    -5.6840 hc         1 X9Y       0.051033
     62 H23         22.3720     7.5810    -6.2180 hc         1 X9Y       0.051033
     63 H24         23.8040     6.5270    -6.1680 hc         1 X9Y       0.051033
     64 H25         22.6770     6.4350    -7.5370 hc         1 X9Y       0.051033
     65 H26         19.2240     3.8900    -3.2730 hc         1 X9Y       0.055367
     66 H27         18.6140     5.4960    -3.7340 hc         1 X9Y       0.055367
     67 H28         19.4710     4.4890    -4.9000 hc         1 X9Y       0.055367
     68 H29         21.0820     8.6550     6.1100 ha         1 X9Y       0.112000
     69 H30         18.1350     5.7340     4.1520 ha         1 X9Y       0.127000
     70 H31         18.6130     4.9390    -1.6350 hn         1 X9Y       0.365000
     71 H33         24.4590     7.3630     6.3750 h1         1 X9Y       0.084700
     72 H34         21.6640    13.1530    12.2080 hc         1 X9Y       0.044144
     73 H35         21.5440    13.6600    10.5120 hc         1 X9Y       0.044144
     74 H36         20.1270    13.7690    11.5760 hc         1 X9Y       0.044144
     75 H37         20.4940    11.0010    13.0000 hc         1 X9Y       0.044144
     76 H38         18.9470    11.5960    12.3740 hc         1 X9Y       0.044144
     77 H39         19.5660    10.0170    11.8520 hc         1 X9Y       0.044144
     78 N6          23.3430     8.8820     7.2130 ns         1 X9Y      -0.485900
     79 C23         24.0000     8.9650     8.4300 c          1 X9Y       0.535600
     80 C14         21.9150     5.5020    -5.7100 c3         1 X9Y       0.105300
@<TRIPOS>BOND
     1     1     2 ar  
     2     1     3 ar  
     3     1    23 1   
     4     2    12 ar  
     5     2    40 1   
     6     3    22 ar  
     7     3    41 1   
     8     4    24 ar  
     9     4    25 ar  
    10     4    43 1   
    11     5     6 ar  
    12     5    23 ar  
    13     5    27 1   
    14     6    25 ar  
    15     6    26 1   
    16     7     8 1   
    17     7    26 1   
    18     7    27 2   
    19     8     9 1   
    20     8    10 2   
    21     9    11 1   
    22     9    28 2   
    23    10    21 1   
    24    10    29 1   
    25    11    45 1   
    26    11    46 1   
    27    11    47 1   
    28    12    13 1   
    29    12    30 ar  
    30    13    15 1   
    31    13    48 1   
    32    13    49 1   
    33    14    16 1   
    34    14    31 1   
    35    14    50 1   
    36    14    51 1   
    37    15    16 1   
    38    15    52 1   
    39    15    53 1   
    40    16    54 1   
    41    16    55 1   
    42    17    33 2   
    43    17    36 1   
    44    17    79 1   
    45    18    37 1   
    46    18    56 1   
    47    18    57 1   
    48    18    58 1   
    49    19    59 1   
    50    19    60 1   
    51    19    61 1   
    52    19    80 1   
    53    20    62 1   
    54    20    63 1   
    55    20    64 1   
    56    20    80 1   
    57    21    65 1   
    58    21    66 1   
    59    21    67 1   
    60    22    30 ar  
    61    22    68 1   
    62    23    24 ar  
    63    24    69 1   
    64    26    70 1   
    65    28    29 1   
    66    29    80 1   
    67    30    31 1   
    68    31    71 1   
    69    31    78 1   
    70    32    79 2   
    71    33    34 1   
    72    34    35 2   
    73    34    37 1   
    74    35    36 1   
    75    37    38 1   
    76    37    39 1   
    77    38    72 1   
    78    38    73 1   
    79    38    74 1   
    80    39    75 1   
    81    39    76 1   
    82    39    77 1   
    83    42    78 1   
    84    44    80 1   
    85    78    79 1   
@<TRIPOS>SUBSTRUCTURE
     1 X9Y         1 TEMP              0 ****  ****    0 ROOT
