@<TRIPOS>MOLECULE
X9Z
   81    84     1     0     0
SMALL
No Charge or Current Charge


@<TRIPOS>ATOM
      1 N1         -19.6050    15.9920   -27.1890 n          1 X9Z      -0.390800
      2 N3         -18.4280    13.8030   -24.4090 ns         1 X9Z      -0.485900
      3 C4         -20.2460    17.6740   -25.6230 cx         1 X9Z      -0.129700
      4 C5         -18.8780    18.0810   -25.0930 cx         1 X9Z      -0.076000
      5 C6         -17.6990    18.4180   -26.0220 c3         1 X9Z      -0.065100
      6 C7         -18.8290    18.9870   -23.8630 c3         1 X9Z      -0.065100
      7 C8         -20.3400    17.2800   -27.1020 c5         1 X9Z       0.137000
      8 C10        -20.0170    15.7270   -29.7190 c3         1 X9Z       0.045700
      9 C17        -18.4400    12.4980   -23.7260 c3         1 X9Z       0.091700
     10 C20        -20.2410    10.3610   -20.3160 cy         1 X9Z       0.106500
     11 C21        -20.5400     8.9640   -20.9460 cy         1 X9Z      -0.117400
     12 C22        -19.4540     9.3350   -22.0050 cy         1 X9Z       0.106500
     13 C24        -18.4190    10.2360   -26.3130 c5         1 X9Z       0.093000
     14 C26        -17.2700    11.4130   -28.0570 c5         1 X9Z      -0.168400
     15 C1         -19.2510    14.1480   -25.4630 c          1 X9Z       0.607100
     16 O1         -20.1120    13.4020   -25.9150 o          1 X9Z      -0.612100
     17 C2         -18.9150    15.6030   -25.9190 c5         1 X9Z       0.057700
     18 N2         -19.0950    15.6970   -30.8830 ns         1 X9Z      -0.475900
     19 O2         -19.8630    17.5550   -31.9580 o          1 X9Z      -0.554100
     20 C3         -19.3940    16.6620   -24.9060 cx         1 X9Z      -0.129700
     21 N4         -19.7970    10.7640   -21.6950 nj         1 X9Z      -0.423800
     22 O4         -19.1910    13.6990   -21.6960 oh         1 X9Z      -0.652000
     23 N5         -17.5480    11.2980   -25.7690 n          1 X9Z      -0.416800
     24 C9         -19.1710    15.4670   -28.4250 c          1 X9Z       0.595100
     25 C11        -21.2290    14.7300   -29.9080 c3         1 X9Z      -0.048000
     26 C12        -22.2910    14.9180   -28.7910 c3         1 X9Z      -0.091100
     27 C14        -21.9390    14.9850   -31.2690 c3         1 X9Z      -0.091100
     28 C16        -18.0160    16.3400   -33.0220 c3         1 X9Z       0.209000
     29 C18        -18.2890    12.6660   -22.1820 c3         1 X9Z       0.081300
     30 C19        -18.4980    11.3150   -21.4250 c          1 X9Z       0.573100
     31 C23        -17.3670    11.5500   -24.3230 c3         1 X9Z       0.096000
     32 C25        -17.7600     9.9840   -27.7040 c5         1 X9Z      -0.087400
     33 C27        -16.7460    11.9320   -26.7230 c          1 X9Z       0.569000
     34 F1         -18.0630    17.2580   -34.0170 f          1 X9Z      -0.101000
     35 F2         -16.7630    16.3690   -32.5080 f          1 X9Z      -0.101000
     36 F3         -18.1910    15.1230   -33.5900 f          1 X9Z      -0.101000
     37 H1         -17.7860    14.5130   -24.0780 hn         1 X9Z       0.324500
     38 H2         -21.1260    18.0690   -25.1210 hc         1 X9Z       0.102700
     39 H3         -16.7440    18.2630   -25.5060 hc         1 X9Z       0.043033
     40 H4         -17.6670    17.8190   -26.9370 hc         1 X9Z       0.043033
     41 H5         -17.7400    19.4690   -26.3320 hc         1 X9Z       0.043033
     42 H6         -19.6560    18.7780   -23.1740 hc         1 X9Z       0.043033
     43 H7         -17.8940    18.8480   -23.3080 hc         1 X9Z       0.043033
     44 H8         -18.8990    20.0440   -24.1500 hc         1 X9Z       0.043033
     45 H9         -19.9000    18.0400   -27.7630 h1         1 X9Z       0.061700
     46 H10        -21.3850    17.1540   -27.4060 h1         1 X9Z       0.061700
     47 H11        -20.4230    16.7420   -29.6420 h1         1 X9Z       0.087700
     48 H12        -20.3250    12.9910   -28.9000 hc         1 X9Z       0.043256
     49 H13        -21.5750    12.5650   -30.0730 hc         1 X9Z       0.043256
     50 H14        -19.9750    13.0700   -30.6390 hc         1 X9Z       0.043256
     51 H15        -19.4170    12.0330   -23.9150 h1         1 X9Z       0.090700
     52 H16        -19.4890    10.3350   -19.5180 h1         1 X9Z       0.061700
     53 H17        -21.1340    10.8970   -19.9760 h1         1 X9Z       0.061700
     54 H18        -21.5510     8.8640   -21.3560 hc         1 X9Z       0.063200
     55 H19        -20.3210     8.0960   -20.3160 hc         1 X9Z       0.063200
     56 H20        -19.7110     9.0410   -23.0290 h1         1 X9Z       0.061700
     57 H21        -18.4480     8.9800   -21.7500 h1         1 X9Z       0.061700
     58 H22        -19.4500    10.6000   -26.4140 h1         1 X9Z       0.051700
     59 H23        -18.4240     9.3340   -25.6870 h1         1 X9Z       0.051700
     60 H24        -16.5140    11.4780   -28.8460 hc         1 X9Z       0.086700
     61 H25        -18.1450    12.0120   -28.3280 hc         1 X9Z       0.086700
     62 H26        -17.8250    15.6390   -26.0480 h1         1 X9Z       0.091700
     63 H27        -18.3870    14.9700   -30.9040 hn         1 X9Z       0.355500
     64 H28        -19.6870    16.3550   -23.9030 hc         1 X9Z       0.108700
     65 H29        -20.1080    13.3630   -21.8110 ho         1 X9Z       0.451000
     66 H30        -21.8800    14.7030   -27.7990 hc         1 X9Z       0.043256
     67 H31        -22.6860    15.9410   -28.7920 hc         1 X9Z       0.043256
     68 H32        -23.1400    14.2390   -28.9420 hc         1 X9Z       0.043256
     69 H33        -22.2560    16.0320   -31.3550 hc         1 X9Z       0.043256
     70 H34        -21.2830    14.7550   -32.1170 hc         1 X9Z       0.043256
     71 H35        -22.8320    14.3560   -31.3710 hc         1 X9Z       0.043256
     72 H36        -17.2540    12.9770   -21.9840 h1         1 X9Z       0.066700
     73 H37        -17.4030    10.5840   -23.8040 h1         1 X9Z       0.073700
     74 H38        -16.3710    11.9740   -24.1380 h1         1 X9Z       0.073700
     75 H39        -18.4600     9.5720   -28.4390 hc         1 X9Z       0.053200
     76 H40        -16.9160     9.2890   -27.6190 hc         1 X9Z       0.053200
     77 O5         -17.5650    10.9160   -20.7290 o          1 X9Z      -0.611100
     78 O6         -15.7210    12.5520   -26.4800 o          1 X9Z      -0.565000
     79 C13        -20.7430    13.2540   -29.8780 c3         1 X9Z      -0.091100
     80 C15        -19.0830    16.6090   -31.9240 c          1 X9Z       0.554100
     81 O3         -18.1570    14.7750   -28.4700 o          1 X9Z      -0.623100
@<TRIPOS>BOND
     1     1     7 1   
     2     1    17 1   
     3     1    24 1   
     4     2     9 1   
     5     2    15 1   
     6     2    37 1   
     7     3     4 1   
     8     3     7 1   
     9     3    20 1   
    10     3    38 1   
    11     4     5 1   
    12     4     6 1   
    13     4    20 1   
    14     5    39 1   
    15     5    40 1   
    16     5    41 1   
    17     6    42 1   
    18     6    43 1   
    19     6    44 1   
    20     7    45 1   
    21     7    46 1   
    22     8    18 1   
    23     8    24 1   
    24     8    25 1   
    25     8    47 1   
    26     9    29 1   
    27     9    31 1   
    28     9    51 1   
    29    10    11 1   
    30    10    21 1   
    31    10    52 1   
    32    10    53 1   
    33    11    12 1   
    34    11    54 1   
    35    11    55 1   
    36    12    21 1   
    37    12    56 1   
    38    12    57 1   
    39    13    23 1   
    40    13    32 1   
    41    13    58 1   
    42    13    59 1   
    43    14    32 1   
    44    14    33 1   
    45    14    60 1   
    46    14    61 1   
    47    15    16 2   
    48    15    17 1   
    49    17    20 1   
    50    17    62 1   
    51    18    63 1   
    52    18    80 1   
    53    19    80 2   
    54    20    64 1   
    55    21    30 1   
    56    22    29 1   
    57    22    65 1   
    58    23    31 1   
    59    23    33 1   
    60    24    81 2   
    61    25    26 1   
    62    25    27 1   
    63    25    79 1   
    64    26    66 1   
    65    26    67 1   
    66    26    68 1   
    67    27    69 1   
    68    27    70 1   
    69    27    71 1   
    70    28    34 1   
    71    28    35 1   
    72    28    36 1   
    73    28    80 1   
    74    29    30 1   
    75    29    72 1   
    76    30    77 2   
    77    31    73 1   
    78    31    74 1   
    79    32    75 1   
    80    32    76 1   
    81    33    78 2   
    82    48    79 1   
    83    49    79 1   
    84    50    79 1   
@<TRIPOS>SUBSTRUCTURE
     1 X9Z         1 TEMP              0 ****  ****    0 ROOT
