@<TRIPOS>MOLECULE
X9Z
   81    84     1     0     0
SMALL
abcg2


@<TRIPOS>ATOM
      1 N1         -19.5930    15.8130   -27.1550 n          1 X9Z      -0.390800
      2 N3         -18.1890    13.6240   -24.6330 ns         1 X9Z      -0.485900
      3 C4         -20.4720    17.3770   -25.6210 cx         1 X9Z      -0.129700
      4 C5         -19.1710    18.0720   -25.3020 cx         1 X9Z      -0.076000
      5 C6         -18.2180    18.5160   -26.3900 c3         1 X9Z      -0.065100
      6 C7         -19.2170    19.0240   -24.1240 c3         1 X9Z      -0.065100
      7 C8         -20.6830    16.7930   -26.9970 c5         1 X9Z       0.137000
      8 C10        -19.9500    15.4770   -29.5810 c3         1 X9Z       0.045700
      9 C17        -18.3180    12.4000   -23.8710 c3         1 X9Z       0.091700
     10 C20        -19.4590     9.5720   -20.5380 cy         1 X9Z       0.106500
     11 C21        -20.9740     9.7420   -20.8200 cy         1 X9Z      -0.117400
     12 C22        -20.6520    11.0850   -21.5200 cy         1 X9Z       0.106500
     13 C24        -18.7360    10.4720   -26.3570 c5         1 X9Z       0.093000
     14 C26        -17.2310    11.1810   -28.1130 c5         1 X9Z      -0.168400
     15 C1         -19.1860    14.1660   -25.3540 c          1 X9Z       0.607100
     16 O1         -20.2860    13.6440   -25.5140 o          1 X9Z      -0.612100
     17 C2         -18.8650    15.5540   -25.9150 c5         1 X9Z       0.057700
     18 N2         -18.9170    15.7270   -30.5780 ns         1 X9Z      -0.475900
     19 O2         -19.7260    17.7040   -31.3980 o          1 X9Z      -0.554100
     20 C3         -19.3550    16.6160   -24.9490 cx         1 X9Z      -0.129700
     21 N4         -19.2230    10.8350   -21.2460 nj         1 X9Z      -0.423800
     22 O4         -19.1170    13.5980   -21.9770 oh         1 X9Z      -0.652000
     23 N5         -17.5270    11.0810   -25.8080 n          1 X9Z      -0.416800
     24 C9         -19.2050    15.1860   -28.2760 c          1 X9Z       0.595100
     25 C11        -20.9260    14.3340   -30.0050 c3         1 X9Z      -0.048000
     26 C12        -21.9560    14.1210   -28.8890 c3         1 X9Z      -0.091100
     27 C14        -21.6510    14.7810   -31.2810 c3         1 X9Z      -0.091100
     28 C16        -17.6430    16.9450   -32.2570 c3         1 X9Z       0.209000
     29 C18        -18.0950    12.6970   -22.3800 c3         1 X9Z       0.081300
     30 C19        -18.0610    11.4100   -21.5480 c          1 X9Z       0.573100
     31 C23        -17.3560    11.3230   -24.3980 c3         1 X9Z       0.096000
     32 C25        -18.3490    10.1740   -27.8140 c5         1 X9Z      -0.087400
     33 C27        -16.6720    11.5420   -26.7510 c          1 X9Z       0.569000
     34 F1         -18.0200    17.0710   -33.5390 f          1 X9Z      -0.101000
     35 F2         -16.9460    18.0450   -31.9260 f          1 X9Z      -0.101000
     36 F3         -16.8050    15.8950   -32.1800 f          1 X9Z      -0.101000
     37 H1         -17.3080    14.1160   -24.5880 hn         1 X9Z       0.324500
     38 H2         -21.3590    17.6610   -25.0700 hc         1 X9Z       0.102700
     39 H3         -17.2070    18.6070   -25.9870 hc         1 X9Z       0.043033
     40 H4         -18.1780    17.8350   -27.2380 hc         1 X9Z       0.043033
     41 H5         -18.5150    19.4980   -26.7670 hc         1 X9Z       0.043033
     42 H6         -19.9090    18.6720   -23.3560 hc         1 X9Z       0.043033
     43 H7         -18.2270    19.1230   -23.6710 hc         1 X9Z       0.043033
     44 H8         -19.5420    20.0170   -24.4450 hc         1 X9Z       0.043033
     45 H9         -20.6330    17.5420   -27.7880 h1         1 X9Z       0.061700
     46 H10        -21.6540    16.3000   -27.0480 h1         1 X9Z       0.061700
     47 H11        -20.5310    16.3910   -29.4990 h1         1 X9Z       0.087700
     48 H12        -19.7060    12.6370   -29.3780 hc         1 X9Z       0.043256
     49 H13        -20.9100    12.2710   -30.6160 hc         1 X9Z       0.043256
     50 H14        -19.4330    13.1270   -31.0540 hc         1 X9Z       0.043256
     51 H15        -19.3450    12.0650   -24.0060 h1         1 X9Z       0.090700
     52 H16        -18.9770     8.7190   -21.0180 h1         1 X9Z       0.061700
     53 H17        -19.1650     9.6100   -19.4880 h1         1 X9Z       0.061700
     54 H18        -21.5920     9.8340   -19.9300 hc         1 X9Z       0.063200
     55 H19        -21.3910     8.9840   -21.4780 hc         1 X9Z       0.063200
     56 H20        -21.0300    11.9750   -21.0230 h1         1 X9Z       0.061700
     57 H21        -20.8930    11.1330   -22.5820 h1         1 X9Z       0.061700
     58 H22        -19.5740    11.1720   -26.2920 h1         1 X9Z       0.051700
     59 H23        -18.9940     9.5750   -25.7920 h1         1 X9Z       0.051700
     60 H24        -16.4440    10.7940   -28.7590 hc         1 X9Z       0.086700
     61 H25        -17.6110    12.1030   -28.5570 hc         1 X9Z       0.086700
     62 H26        -17.7930    15.6220   -26.1090 h1         1 X9Z       0.091700
     63 H27        -18.1290    15.0940   -30.5820 hn         1 X9Z       0.355500
     64 H28        -19.4070    16.3400   -23.9050 hc         1 X9Z       0.108700
     65 H29        -18.8970    13.9440   -21.1030 ho         1 X9Z       0.451000
     66 H30        -21.4850    13.8250   -27.9510 hc         1 X9Z       0.043256
     67 H31        -22.5390    15.0280   -28.7130 hc         1 X9Z       0.043256
     68 H32        -22.6490    13.3310   -29.1830 hc         1 X9Z       0.043256
     69 H33        -22.1990    15.7100   -31.1160 hc         1 X9Z       0.043256
     70 H34        -20.9530    14.9330   -32.1060 hc         1 X9Z       0.043256
     71 H35        -22.3640    14.0120   -31.5830 hc         1 X9Z       0.043256
     72 H36        -17.1080    13.1540   -22.2580 h1         1 X9Z       0.066700
     73 H37        -17.5210    10.3910   -23.8550 h1         1 X9Z       0.073700
     74 H38        -16.3240    11.6350   -24.2380 h1         1 X9Z       0.073700
     75 H39        -19.2000    10.2700   -28.4860 hc         1 X9Z       0.053200
     76 H40        -17.9670     9.1560   -27.8910 hc         1 X9Z       0.053200
     77 O5         -16.9760    10.9270   -21.2010 o          1 X9Z      -0.611100
     78 O6         -15.6320    12.1600   -26.5300 o          1 X9Z      -0.565000
     79 C13        -20.1900    13.0170   -30.2750 c3         1 X9Z      -0.091100
     80 C15        -18.8900    16.8160   -31.3440 c          1 X9Z       0.554100
     81 O3         -18.2500    14.4040   -28.2830 o          1 X9Z      -0.623100
@<TRIPOS>BOND
     1     1     7 1   
     2     1    17 1   
     3     1    24 1   
     4     2     9 1   
     5     2    15 1   
     6     2    37 1   
     7     3     4 1   
     8     3     7 1   
     9     3    20 1   
    10     3    38 1   
    11     4     5 1   
    12     4     6 1   
    13     4    20 1   
    14     5    39 1   
    15     5    40 1   
    16     5    41 1   
    17     6    42 1   
    18     6    43 1   
    19     6    44 1   
    20     7    45 1   
    21     7    46 1   
    22     8    18 1   
    23     8    24 1   
    24     8    25 1   
    25     8    47 1   
    26     9    29 1   
    27     9    31 1   
    28     9    51 1   
    29    10    11 1   
    30    10    21 1   
    31    10    52 1   
    32    10    53 1   
    33    11    12 1   
    34    11    54 1   
    35    11    55 1   
    36    12    21 1   
    37    12    56 1   
    38    12    57 1   
    39    13    23 1   
    40    13    32 1   
    41    13    58 1   
    42    13    59 1   
    43    14    32 1   
    44    14    33 1   
    45    14    60 1   
    46    14    61 1   
    47    15    16 2   
    48    15    17 1   
    49    17    20 1   
    50    17    62 1   
    51    18    63 1   
    52    18    80 1   
    53    19    80 2   
    54    20    64 1   
    55    21    30 1   
    56    22    29 1   
    57    22    65 1   
    58    23    31 1   
    59    23    33 1   
    60    24    81 2   
    61    25    26 1   
    62    25    27 1   
    63    25    79 1   
    64    26    66 1   
    65    26    67 1   
    66    26    68 1   
    67    27    69 1   
    68    27    70 1   
    69    27    71 1   
    70    28    34 1   
    71    28    35 1   
    72    28    36 1   
    73    28    80 1   
    74    29    30 1   
    75    29    72 1   
    76    30    77 2   
    77    31    73 1   
    78    31    74 1   
    79    32    75 1   
    80    32    76 1   
    81    33    78 2   
    82    48    79 1   
    83    49    79 1   
    84    50    79 1   
@<TRIPOS>SUBSTRUCTURE
     1 X9Z         1 TEMP              0 ****  ****    0 ROOT
