@<TRIPOS>MOLECULE
XA0
   33    34     1     0     0
SMALL
bcc


@<TRIPOS>ATOM
      1 N01          0.2830    -0.0750     0.0360 nu         1 XA0      -0.751600
      2 N02         -1.7340    -3.7350    -0.0250 nt         1 XA0      -0.655000
      3 N03         -5.3060    -0.1930     0.0210 no         1 XA0       0.331200
      4 C04         -3.1550    -1.2850     0.1800 ca         1 XA0       0.022000
      5 C05         -1.7780    -1.3310     0.1580 ca         1 XA0      -0.269600
      6 C06         -1.0530    -0.1100     0.0160 ca         1 XA0       0.303600
      7 C07         -1.7910     1.0780    -0.1680 ca         1 XA0      -0.265000
      8 C08         -3.1640     1.0880    -0.1810 ca         1 XA0       0.162400
      9 C09         -3.8730    -0.1070     0.0060 ca         1 XA0      -0.271200
     10 C11          1.0700     1.1260    -0.1480 c3         1 XA0       0.272100
     11 C12          2.5300     0.7750    -0.1030 ca         1 XA0      -0.081300
     12 C13          3.2240     0.5220    -1.2800 ca         1 XA0      -0.144500
     13 C14          4.5550     0.1640    -1.2180 ca         1 XA0       0.126400
     14 C15          5.2070     0.0430    -0.0050 ca         1 XA0       0.067900
     15 C16          4.5030     0.2950     1.1590 ca         1 XA0       0.126400
     16 C17          3.1740     0.6580     1.1240 ca         1 XA0      -0.144500
     17 O18          0.0910    -2.6730     0.7420 o          1 XA0      -0.638100
     18 O19         -5.9470     0.6720    -0.5300 o          1 XA0      -0.211500
     19 O20         -5.8100    -1.1480     0.5750 o          1 XA0      -0.211500
     20 CL21        -3.9170     2.6250    -0.3400 cl         1 XA0      -0.041400
     21 F22          5.1430     0.1790     2.3220 f          1 XA0      -0.114400
     22 F23          5.2430    -0.0760    -2.3340 f          1 XA0      -0.114400
     23 F24          6.4900    -0.3060     0.0420 f          1 XA0      -0.101900
     24 HN01         0.7490    -0.9370     0.2910 hn         1 XA0       0.490800
     25 H102        -2.5930    -3.7150    -0.5470 hn         1 XA0       0.322000
     26 H202        -1.2790    -4.6290     0.0620 hn         1 XA0       0.322000
     27 H04         -3.7160    -2.1960     0.3370 ha         1 XA0       0.164000
     28 H07         -1.2700     2.0180    -0.2810 ha         1 XA0       0.156000
     29 H111         0.8280     1.5890    -1.1080 h1         1 XA0       0.059700
     30 H211         0.8430     1.8610     0.6310 h1         1 XA0       0.059700
     31 H13          2.7400     0.6110    -2.2440 ha         1 XA0       0.163000
     32 H17          2.6500     0.8540     2.0510 ha         1 XA0       0.163000
     33 C10         -1.0610    -2.6280     0.3140 c          1 XA0       0.702700
@<TRIPOS>BOND
     1     1     6 1   
     2     1    10 1   
     3     1    24 1   
     4     2    25 1   
     5     2    26 1   
     6     2    33 1   
     7     3     9 1   
     8     3    18 1   
     9     3    19 1   
    10     4     5 ar  
    11     4     9 ar  
    12     4    27 1   
    13     5     6 ar  
    14     5    33 1   
    15     6     7 ar  
    16     7     8 ar  
    17     7    28 1   
    18     8     9 ar  
    19     8    20 1   
    20    10    11 1   
    21    10    29 1   
    22    10    30 1   
    23    11    12 ar  
    24    11    16 ar  
    25    12    13 ar  
    26    12    31 1   
    27    13    14 ar  
    28    13    22 1   
    29    14    15 ar  
    30    14    23 1   
    31    15    16 ar  
    32    15    21 1   
    33    16    32 1   
    34    17    33 2   
@<TRIPOS>SUBSTRUCTURE
     1 XA0         1 TEMP              0 ****  ****    0 ROOT
