@<TRIPOS>MOLECULE
XA0
   33    34     1     0     0
SMALL
No Charge or Current Charge


@<TRIPOS>ATOM
      1 N01          0.2530     0.0640     0.3010 nu         1 XA0      -0.945200
      2 N02         -1.6280    -3.7180    -0.2890 nt         1 XA0      -0.588000
      3 N03         -5.4070    -0.1890    -0.0480 no         1 XA0       0.711200
      4 C04         -3.1770    -1.3080    -0.0460 ca         1 XA0       0.040000
      5 C05         -1.7630    -1.2810     0.0350 ca         1 XA0      -0.269600
      6 C06         -1.1280    -0.0310     0.2140 ca         1 XA0       0.442000
      7 C07         -1.8850     1.1410     0.3250 ca         1 XA0      -0.247000
      8 C08         -3.2780     1.1060     0.2420 ca         1 XA0       0.254000
      9 C09         -3.9310    -0.1210     0.0480 ca         1 XA0      -0.271200
     10 C11          1.0880     1.1500    -0.2230 c3         1 XA0       0.272100
     11 C12          2.5530     0.7510    -0.1190 ca         1 XA0      -0.081300
     12 C13          3.1860     0.0780    -1.1840 ca         1 XA0      -0.126500
     13 C14          4.5370    -0.2970    -1.0820 ca         1 XA0       0.161500
     14 C15          5.2670    -0.0070     0.0840 ca         1 XA0       0.103000
     15 C16          4.6380     0.6600     1.1490 ca         1 XA0       0.161500
     16 C17          3.2870     1.0370     1.0510 ca         1 XA0      -0.126500
     17 O18          0.2480    -2.6170     0.0380 o          1 XA0      -0.638100
     18 O19         -5.9620     0.5280    -0.8880 o          1 XA0      -0.401500
     19 O20         -5.9720    -1.1160     0.5440 o          1 XA0      -0.401500
     20 Cl21        -4.1600     2.6220     0.4440 cl         1 XA0      -0.133000
     21 F22          5.3270     0.9430     2.2790 f          1 XA0      -0.149500
     22 F23          5.1280    -0.9410    -2.1140 f          1 XA0      -0.149500
     23 F24          6.5690    -0.3700     0.1810 f          1 XA0      -0.137000
     24 HN01         0.6880    -0.8680     0.2720 hn         1 XA0       0.546000
     25 H102        -2.6300    -3.7300    -0.3890 hn         1 XA0       0.322000
     26 H202        -1.0990    -4.5740    -0.3570 hn         1 XA0       0.322000
     27 H04         -3.7110    -2.2460    -0.1890 ha         1 XA0       0.146000
     28 H07         -1.3950     2.0940     0.4900 ha         1 XA0       0.138000
     29 H111         0.8390     1.3470    -1.2750 h1         1 XA0       0.059700
     30 H211         0.9180     2.0780     0.3400 h1         1 XA0       0.059700
     31 H13          2.6340    -0.1570    -2.0910 ha         1 XA0       0.145000
     32 H17          2.8120     1.5480     1.8850 ha         1 XA0       0.145000
     33 C10         -0.9670    -2.5640    -0.0700 c          1 XA0       0.635700
@<TRIPOS>BOND
     1     1     6 1   
     2     1    10 1   
     3     1    24 1   
     4     2    25 1   
     5     2    26 1   
     6     2    33 1   
     7     3     9 1   
     8     3    18 1   
     9     3    19 1   
    10     4     5 ar  
    11     4     9 ar  
    12     4    27 1   
    13     5     6 ar  
    14     5    33 1   
    15     6     7 ar  
    16     7     8 ar  
    17     7    28 1   
    18     8     9 ar  
    19     8    20 1   
    20    10    11 1   
    21    10    29 1   
    22    10    30 1   
    23    11    12 ar  
    24    11    16 ar  
    25    12    13 ar  
    26    12    31 1   
    27    13    14 ar  
    28    13    22 1   
    29    14    15 ar  
    30    14    23 1   
    31    15    16 ar  
    32    15    21 1   
    33    16    32 1   
    34    17    33 2   
@<TRIPOS>SUBSTRUCTURE
     1 XA0         1 TEMP              0 ****  ****    0 ROOT
