@<TRIPOS>MOLECULE
XA3
   54    58     1     0     0
SMALL
No Charge or Current Charge


@<TRIPOS>ATOM
      1 C1         -15.5890    14.1210    -6.1590 cc         1 XA3      -0.250600
      2 C2         -16.2970    12.9840    -5.9010 cd         1 XA3      -0.032800
      3 C4         -16.8310    14.4380    -4.2530 cc         1 XA3      -0.144000
      4 C5         -16.2180    11.8300    -6.7740 cd         1 XA3      -0.071400
      5 C6         -16.9770    10.5710    -6.5690 ca         1 XA3      -0.046800
      6 C10        -19.9850     5.5070    -3.8240 ca         1 XA3      -0.118000
      7 N          -15.8960    15.0100    -5.1230 na         1 XA3      -0.083000
      8 C          -14.7260    14.2910    -7.3350 c          1 XA3       0.582600
      9 O          -14.0840    15.3140    -7.5480 o          1 XA3      -0.572000
     10 C11        -19.4580     5.1450    -2.5660 ca         1 XA3      -0.062000
     11 C12        -20.0470     4.1350    -1.7660 cp         1 XA3      -0.078000
     12 C13        -19.4630     3.7600    -0.4390 cp         1 XA3      -0.019000
     13 C14        -20.2930     3.3860     0.6480 ca         1 XA3      -0.105000
     14 C15        -19.7460     3.0340     1.8940 ca         1 XA3      -0.110000
     15 C16        -18.3540     3.0470     2.0800 ca         1 XA3      -0.112000
     16 C17        -17.5120     3.4120     1.0180 ca         1 XA3      -0.110000
     17 C18        -18.0600     3.7650    -0.2270 ca         1 XA3      -0.105000
     18 C19        -21.2080     3.4960    -2.2610 ca         1 XA3      -0.055000
     19 C20        -21.7560     3.8580    -3.5000 ca         1 XA3      -0.179000
     20 C21        -21.1600     4.8560    -4.2840 ca         1 XA3       0.313000
     21 C22        -18.1110     8.6010    -7.4270 ca         1 XA3      -0.099000
     22 C23        -17.4100     9.7950    -7.6660 ca         1 XA3      -0.090000
     23 C24        -15.4610    12.0150    -7.9270 cc         1 XA3      -0.044400
     24 C3         -17.0840    13.1850    -4.7450 cd         1 XA3      -0.189000
     25 C7         -17.2490    10.0690    -5.2760 ca         1 XA3       0.342900
     26 C8         -18.3600     8.1810    -6.1030 ca         1 XA3       0.277500
     27 N1         -17.9190     8.9140    -5.0390 nb         1 XA3      -0.677000
     28 N2         -19.3070     6.5680    -4.5070 ns         1 XA3      -0.157000
     29 N3         -21.7660     5.1820    -5.4650 nv         1 XA3      -1.062000
     30 N4         -14.7220    13.1790    -8.2030 n          1 XA3      -0.279000
     31 O1         -19.5250     6.1620    -6.7710 o          1 XA3      -0.578100
     32 H1         -17.2340    14.9630    -3.3940 h4         1 XA3       0.152000
     33 H2         -15.5140    15.9480    -5.0310 hn         1 XA3       0.368000
     34 H3         -18.5770     5.6650    -2.1980 ha         1 XA3       0.118000
     35 H4         -21.3740     3.3820     0.5310 ha         1 XA3       0.112500
     36 H5         -20.4010     2.7540     2.7170 ha         1 XA3       0.111000
     37 H6         -17.9300     2.7740     3.0440 ha         1 XA3       0.112000
     38 H7         -16.4330     3.4200     1.1580 ha         1 XA3       0.111000
     39 H8         -17.3890     4.0310    -1.0400 ha         1 XA3       0.112500
     40 H9         -21.6850     2.7080    -1.6830 ha         1 XA3       0.114000
     41 H10        -22.6550     3.3560    -3.8490 ha         1 XA3       0.115000
     42 H11        -18.4630     8.0050    -8.2650 ha         1 XA3       0.150000
     43 H12        -17.2410    10.1170    -8.6900 ha         1 XA3       0.123000
     44 H13        -15.3280    11.2630    -8.6960 h4         1 XA3       0.201000
     45 H14        -14.2350    14.1260   -10.0350 h1         1 XA3       0.055033
     46 H15        -12.8470    13.4150    -9.1620 h1         1 XA3       0.055033
     47 H16        -13.9910    12.3600   -10.0340 h1         1 XA3       0.055033
     48 H17        -17.7990    12.4950    -4.3110 ha         1 XA3       0.142000
     49 H18        -16.8720    10.5720    -4.3890 h4         1 XA3       0.030100
     50 H19        -18.8640     7.2360    -3.8870 hn         1 XA3       0.179000
     51 H20        -22.4910     4.5630    -5.8180 hn         1 XA3       0.454000
     52 H21        -21.1680     5.6110    -6.1740 hn         1 XA3       0.454000
     53 C9         -19.1260     6.8780    -5.8530 c          1 XA3       0.502600
     54 C25        -13.9010    13.2720    -9.4320 c3         1 XA3       0.084300
@<TRIPOS>BOND
     1     1     2 2   
     2     1     7 1   
     3     1     8 1   
     4     2     4 1   
     5     2    24 1   
     6     3     7 1   
     7     3    24 2   
     8     3    32 1   
     9     4     5 1   
    10     4    23 2   
    11     5    22 ar  
    12     5    25 ar  
    13     6    10 ar  
    14     6    20 ar  
    15     6    28 1   
    16     7    33 1   
    17     8     9 2   
    18     8    30 1   
    19    10    11 ar  
    20    10    34 1   
    21    11    12 1   
    22    11    18 ar  
    23    12    13 ar  
    24    12    17 ar  
    25    13    14 ar  
    26    13    35 1   
    27    14    15 ar  
    28    14    36 1   
    29    15    16 ar  
    30    15    37 1   
    31    16    17 ar  
    32    16    38 1   
    33    17    39 1   
    34    18    19 ar  
    35    18    40 1   
    36    19    20 ar  
    37    19    41 1   
    38    20    29 1   
    39    21    22 ar  
    40    21    26 ar  
    41    21    42 1   
    42    22    43 1   
    43    23    30 1   
    44    23    44 1   
    45    24    48 1   
    46    25    27 ar  
    47    25    49 1   
    48    26    27 ar  
    49    26    53 1   
    50    28    50 1   
    51    28    53 1   
    52    29    51 1   
    53    29    52 1   
    54    30    54 1   
    55    31    53 2   
    56    45    54 1   
    57    46    54 1   
    58    47    54 1   
@<TRIPOS>SUBSTRUCTURE
     1 XA3         1 TEMP              0 ****  ****    0 ROOT
