@<TRIPOS>MOLECULE
XA3
   54    58     1     0     0
SMALL
abcg2


@<TRIPOS>ATOM
      1 C1         -16.0060    14.2220    -6.7660 cc         1 XA3      -0.250600
      2 C2         -16.7500    13.0930    -6.3960 cd         1 XA3      -0.032800
      3 C4         -17.7920    14.9480    -5.6530 cc         1 XA3      -0.144000
      4 C5         -16.2790    11.8040    -6.8080 cd         1 XA3      -0.071400
      5 C6         -16.9640    10.5490    -6.4700 ca         1 XA3      -0.046800
      6 C10        -20.0900     5.9340    -3.3890 ca         1 XA3      -0.118000
      7 N          -16.6560    15.3340    -6.3020 na         1 XA3      -0.083000
      8 C          -14.8040    14.1970    -7.5300 c          1 XA3       0.582600
      9 O          -14.1350    15.1850    -7.8680 o          1 XA3      -0.572000
     10 C11        -19.4240     5.2330    -2.3940 ca         1 XA3      -0.062000
     11 C12        -20.0250     4.1740    -1.7090 cp         1 XA3      -0.078000
     12 C13        -19.3020     3.4360    -0.6520 cp         1 XA3      -0.019000
     13 C14        -19.9850     2.8960     0.4470 ca         1 XA3      -0.105000
     14 C15        -19.3070     2.2020     1.4420 ca         1 XA3      -0.110000
     15 C16        -17.9270     2.0340     1.3670 ca         1 XA3      -0.112000
     16 C17        -17.2350     2.5650     0.2820 ca         1 XA3      -0.110000
     17 C18        -17.9140     3.2550    -0.7150 ca         1 XA3      -0.105000
     18 C19        -21.3360     3.8400    -2.0740 ca         1 XA3      -0.055000
     19 C20        -22.0100     4.5310    -3.0650 ca         1 XA3      -0.179000
     20 C21        -21.4100     5.6020    -3.7430 ca         1 XA3       0.313000
     21 C22        -17.7020     8.3190    -6.9990 ca         1 XA3      -0.099000
     22 C23        -17.0660     9.4900    -7.3760 ca         1 XA3      -0.090000
     23 C24        -15.1280    11.7820    -7.5430 cc         1 XA3      -0.044400
     24 C3         -17.8910    13.5730    -5.6880 cd         1 XA3      -0.189000
     25 C7         -17.5380    10.3530    -5.2040 ca         1 XA3       0.342900
     26 C8         -18.2410     8.2330    -5.7210 ca         1 XA3       0.277500
     27 N1         -18.1560     9.2360    -4.8400 nb         1 XA3      -0.677000
     28 N2         -19.4400     7.0270    -4.0290 ns         1 XA3      -0.157000
     29 N3         -22.0780     6.2750    -4.7470 nv         1 XA3      -1.062000
     30 N4         -14.4210    12.9050    -7.8890 n          1 XA3      -0.279000
     31 O1         -19.0480     6.0040    -6.0280 o          1 XA3      -0.578100
     32 H1         -18.4490    15.6780    -5.2110 h4         1 XA3       0.152000
     33 H2         -16.3400    16.2830    -6.4260 hn         1 XA3       0.368000
     34 H3         -18.4170     5.5440    -2.1470 ha         1 XA3       0.118000
     35 H4         -21.0550     3.0350     0.5330 ha         1 XA3       0.112500
     36 H5         -19.8580     1.7990     2.2830 ha         1 XA3       0.111000
     37 H6         -17.3980     1.4950     2.1420 ha         1 XA3       0.112000
     38 H7         -16.1620     2.4350     0.2060 ha         1 XA3       0.111000
     39 H8         -17.3630     3.6400    -1.5620 ha         1 XA3       0.112500
     40 H9         -21.8340     3.0130    -1.5860 ha         1 XA3       0.114000
     41 H10        -23.0230     4.2490    -3.3270 ha         1 XA3       0.115000
     42 H11        -17.7970     7.4860    -7.6800 ha         1 XA3       0.150000
     43 H12        -16.6630     9.5910    -8.3760 ha         1 XA3       0.123000
     44 H13        -14.6920    10.8530    -7.8800 h4         1 XA3       0.201000
     45 H14        -13.2840    13.3190    -9.6080 h1         1 XA3       0.055033
     46 H15        -12.3490    13.1840    -8.1130 h1         1 XA3       0.055033
     47 H16        -13.0170    11.7220    -8.8730 h1         1 XA3       0.055033
     48 H17        -18.6920    12.9940    -5.2610 ha         1 XA3       0.142000
     49 H18        -17.4730    11.1310    -4.4540 h4         1 XA3       0.030100
     50 H19        -19.2150     7.8580    -3.4980 hn         1 XA3       0.179000
     51 H20        -23.0850     6.2330    -4.7020 hn         1 XA3       0.454000
     52 H21        -21.7350     7.2020    -4.9540 hn         1 XA3       0.454000
     53 C9         -18.9440     6.9780    -5.2850 c          1 XA3       0.502600
     54 C25        -13.1900    12.7740    -8.6700 c3         1 XA3       0.084300
@<TRIPOS>BOND
     1     1     2 2   
     2     1     7 1   
     3     1     8 1   
     4     2     4 1   
     5     2    24 1   
     6     3     7 1   
     7     3    24 2   
     8     3    32 1   
     9     4     5 1   
    10     4    23 2   
    11     5    22 ar  
    12     5    25 ar  
    13     6    10 ar  
    14     6    20 ar  
    15     6    28 1   
    16     7    33 1   
    17     8     9 2   
    18     8    30 1   
    19    10    11 ar  
    20    10    34 1   
    21    11    12 1   
    22    11    18 ar  
    23    12    13 ar  
    24    12    17 ar  
    25    13    14 ar  
    26    13    35 1   
    27    14    15 ar  
    28    14    36 1   
    29    15    16 ar  
    30    15    37 1   
    31    16    17 ar  
    32    16    38 1   
    33    17    39 1   
    34    18    19 ar  
    35    18    40 1   
    36    19    20 ar  
    37    19    41 1   
    38    20    29 1   
    39    21    22 ar  
    40    21    26 ar  
    41    21    42 1   
    42    22    43 1   
    43    23    30 1   
    44    23    44 1   
    45    24    48 1   
    46    25    27 ar  
    47    25    49 1   
    48    26    27 ar  
    49    26    53 1   
    50    28    50 1   
    51    28    53 1   
    52    29    51 1   
    53    29    52 1   
    54    30    54 1   
    55    31    53 2   
    56    45    54 1   
    57    46    54 1   
    58    47    54 1   
@<TRIPOS>SUBSTRUCTURE
     1 XA3         1 TEMP              0 ****  ****    0 ROOT
