@<TRIPOS>MOLECULE
XA4
   78    83     1     0     0
SMALL
No Charge or Current Charge


@<TRIPOS>ATOM
      1 C18         -2.4190    52.6540   -25.8590 cc         1 XA4       0.287900
      2 C16         -4.4520    49.8890   -25.0200 c3         1 XA4       0.070900
      3 C14          0.1740    49.3940   -19.3680 c3         1 XA4       0.100600
      4 C12         -1.2350    49.9230   -19.7430 c3         1 XA4      -0.084700
      5 C10         -3.3500    49.3330   -21.1910 c3         1 XA4      -0.074400
      6 C11         -1.9760    48.8860   -20.6290 c3         1 XA4      -0.066400
      7 N19         -0.5200    54.3360   -24.3920 nb         1 XA4      -0.680000
      8 C20          0.4690    55.0710   -23.8490 ca         1 XA4       0.346300
      9 C21          0.5910    56.5000   -24.3450 c3         1 XA4      -0.140400
     10 C22          1.3600    54.5570   -22.8960 ca         1 XA4      -0.127000
     11 C24          1.8060    51.3720   -19.5940 cc         1 XA4       0.663300
     12 C26          1.2490    50.6950   -17.5020 ca         1 XA4      -0.048200
     13 C27          0.7090    50.0610   -16.3730 ca         1 XA4      -0.077000
     14 C28          1.0350    50.5770   -15.0970 ca         1 XA4      -0.082300
     15 C29          0.4360    49.9430   -13.8440 c3         1 XA4       0.215100
     16 N30         -1.0200    49.6820   -13.9530 n3         1 XA4      -0.724600
     17 C31         -1.8310    50.9200   -14.1840 c6         1 XA4       0.163300
     18 C02          2.2120    52.6590   -21.4590 c          1 XA4       0.734100
     19 C03          1.2220    53.2250   -22.4560 ca         1 XA4      -0.085600
     20 C04          0.1620    52.4690   -23.0150 ca         1 XA4      -0.114000
     21 C05         -0.6710    53.0520   -23.9970 ca         1 XA4       0.442500
     22 C06         -1.7710    52.3460   -24.6480 cc         1 XA4      -0.264500
     23 C07         -2.5190    51.3410   -24.1240 cd         1 XA4       0.054100
     24 C09         -3.3540    50.6710   -21.9670 c3         1 XA4       0.158600
     25 C32         -3.3540    50.6080   -14.3380 c6         1 XA4       0.164300
     26 C35         -3.0880    48.6170   -12.9350 c6         1 XA4       0.164300
     27 C36         -1.5630    48.9270   -12.7840 c6         1 XA4       0.163300
     28 C37          1.9060    51.6940   -14.9900 ca         1 XA4      -0.104000
     29 C38          2.4430    52.3030   -16.1450 ca         1 XA4      -0.101000
     30 C39          2.0830    51.7710   -17.3870 ca         1 XA4      -0.044200
     31 N15         -3.4870    50.9980   -25.0730 na         1 XA4       0.105800
     32 N17         -3.4370    51.8600   -26.1640 nd         1 XA4      -0.524800
     33 N23          1.8910    51.4190   -20.8850 nf         1 XA4      -0.828100
     34 N25          1.0700    50.4410   -18.8500 na         1 XA4      -0.195600
     35 N33         -3.9000    49.8510   -13.1700 n3         1 XA4      -0.716600
     36 N40          2.4380    52.1810   -18.6540 na         1 XA4      -0.350600
     37 O08         -2.3270    50.6290   -22.9750 os         1 XA4      -0.343100
     38 H1          -2.1600    53.4460   -26.5510 h4         1 XA4       0.054100
     39 H2          -4.7010    49.5640   -26.0370 h1         1 XA4       0.056700
     40 H3          -4.0160    49.0450   -24.4710 h1         1 XA4       0.056700
     41 H4          -5.3650    50.2220   -24.5130 h1         1 XA4       0.056700
     42 H5           0.0880    48.5790   -18.6390 h1         1 XA4       0.066700
     43 H6           0.6480    48.9720   -20.2630 h1         1 XA4       0.066700
     44 H7          -1.5250    51.1040   -17.9130 hc         1 XA4       0.035700
     45 H8          -3.0230    50.7690   -18.7770 hc         1 XA4       0.035700
     46 H9          -2.2390    49.4780   -17.8410 hc         1 XA4       0.035700
     47 H10         -1.0810    50.8230   -20.3520 hc         1 XA4       0.076700
     48 H11         -4.0770    49.4000   -20.3740 hc         1 XA4       0.048200
     49 H12         -3.7220    48.5470   -21.8590 hc         1 XA4       0.048200
     50 H13         -2.1200    47.9620   -20.0540 hc         1 XA4       0.048700
     51 H14         -1.3320    48.6180   -21.4760 hc         1 XA4       0.048700
     52 H15          1.2210    56.5470   -25.2410 hc         1 XA4       0.048700
     53 H16         -0.3890    56.9230   -24.5980 hc         1 XA4       0.048700
     54 H17          1.0420    57.1470   -23.5840 hc         1 XA4       0.048700
     55 H18          2.1540    55.1910   -22.5080 ha         1 XA4       0.139000
     56 H19          0.0380    49.2110   -16.4670 ha         1 XA4       0.140000
     57 H20          0.9670    48.9990   -13.6600 h1         1 XA4       0.041700
     58 H21          0.6340    50.5930   -12.9810 h1         1 XA4       0.041700
     59 H23         -1.6990    51.6200   -13.3460 h1         1 XA4       0.040450
     60 H24         -1.4940    51.4410   -15.0920 h1         1 XA4       0.040450
     61 H25          0.0190    51.4310   -22.7340 ha         1 XA4       0.149000
     62 H26         -3.1790    51.5090   -21.2810 h1         1 XA4       0.044700
     63 H27         -4.3470    50.8120   -22.4110 h1         1 XA4       0.044700
     64 H28         -3.8950    51.5580   -14.4620 h1         1 XA4       0.037200
     65 H29         -3.4990    50.0320   -15.2640 h1         1 XA4       0.037200
     66 H30         -5.9120    50.5030   -13.4150 h1         1 XA4       0.031033
     67 H31         -5.5460    48.9300   -14.1660 h1         1 XA4       0.031033
     68 H32         -5.7200    49.0580   -12.3990 h1         1 XA4       0.031033
     69 H33         -3.2190    47.9150   -13.7730 h1         1 XA4       0.037200
     70 H34         -3.4330    48.1020   -12.0270 h1         1 XA4       0.037200
     71 H35         -1.0240    47.9770   -12.6600 h1         1 XA4       0.040450
     72 H36         -1.4140    49.5040   -11.8590 h1         1 XA4       0.040450
     73 H37          2.1590    52.0940   -14.0100 ha         1 XA4       0.118000
     74 H38          3.1050    53.1630   -16.0700 ha         1 XA4       0.130000
     75 H22          3.0780    52.9240   -18.8980 hn         1 XA4       0.401000
     76 O01          3.2600    53.2200   -21.1740 o          1 XA4      -0.651100
     77 C13         -2.0550    50.3400   -18.4940 c3         1 XA4      -0.091100
     78 C34         -5.3450    49.5700   -13.2950 c3         1 XA4       0.153100
@<TRIPOS>BOND
     1     1    22 1   
     2     1    32 2   
     3     1    38 1   
     4     2    31 1   
     5     2    39 1   
     6     2    40 1   
     7     2    41 1   
     8     3     4 1   
     9     3    34 1   
    10     3    42 1   
    11     3    43 1   
    12     4     6 1   
    13     4    47 1   
    14     4    77 1   
    15     5     6 1   
    16     5    24 1   
    17     5    48 1   
    18     5    49 1   
    19     6    50 1   
    20     6    51 1   
    21     7     8 ar  
    22     7    21 ar  
    23     8     9 1   
    24     8    10 ar  
    25     9    52 1   
    26     9    53 1   
    27     9    54 1   
    28    10    19 ar  
    29    10    55 1   
    30    11    33 2   
    31    11    34 1   
    32    11    36 1   
    33    12    13 ar  
    34    12    30 ar  
    35    12    34 1   
    36    13    14 ar  
    37    13    56 1   
    38    14    15 1   
    39    14    28 ar  
    40    15    16 1   
    41    15    57 1   
    42    15    58 1   
    43    16    17 1   
    44    16    27 1   
    45    17    25 1   
    46    17    59 1   
    47    17    60 1   
    48    18    19 1   
    49    18    33 1   
    50    18    76 2   
    51    19    20 ar  
    52    20    21 ar  
    53    20    61 1   
    54    21    22 1   
    55    22    23 2   
    56    23    31 1   
    57    23    37 1   
    58    24    37 1   
    59    24    62 1   
    60    24    63 1   
    61    25    35 1   
    62    25    64 1   
    63    25    65 1   
    64    26    27 1   
    65    26    35 1   
    66    26    69 1   
    67    26    70 1   
    68    27    71 1   
    69    27    72 1   
    70    28    29 ar  
    71    28    73 1   
    72    29    30 ar  
    73    29    74 1   
    74    30    36 1   
    75    31    32 1   
    76    35    78 1   
    77    36    75 1   
    78    44    77 1   
    79    45    77 1   
    80    46    77 1   
    81    66    78 1   
    82    67    78 1   
    83    68    78 1   
@<TRIPOS>SUBSTRUCTURE
     1 XA4         1 TEMP              0 ****  ****    0 ROOT
