@<TRIPOS>MOLECULE
XA4
   78    83     1     0     0
SMALL
abcg2


@<TRIPOS>ATOM
      1 C18         -2.0520    52.3770   -26.3020 cc         1 XA4       0.287900
      2 C16         -4.2290    49.8030   -25.4220 c3         1 XA4       0.070900
      3 C14         -0.2620    49.9510   -19.3370 c3         1 XA4       0.100600
      4 C12         -1.6780    50.4310   -19.6500 c3         1 XA4      -0.084700
      5 C10         -3.5770    49.9460   -21.3240 c3         1 XA4      -0.074400
      6 C11         -2.3500    49.4170   -20.5810 c3         1 XA4      -0.066400
      7 N19          0.0130    53.9690   -25.0980 nb         1 XA4      -0.680000
      8 C20          0.9910    54.7220   -24.6030 ca         1 XA4       0.346300
      9 C21          1.5180    55.8060   -25.4940 c3         1 XA4      -0.140400
     10 C22          1.4950    54.5290   -23.3220 ca         1 XA4      -0.127000
     11 C24          1.1130    52.0020   -19.2600 cc         1 XA4       0.663300
     12 C26          0.8450    50.9720   -17.2940 ca         1 XA4      -0.048200
     13 C27          0.4760    50.1500   -16.2460 ca         1 XA4      -0.077000
     14 C28          0.9320    50.4780   -14.9720 ca         1 XA4      -0.082300
     15 C29          0.5320    49.6180   -13.8000 c3         1 XA4       0.215100
     16 N30         -0.8950    49.3740   -13.7690 n3         1 XA4      -0.724600
     17 C31         -1.6540    50.5860   -13.5210 c6         1 XA4       0.163300
     18 C02          1.4630    53.3020   -21.1370 c          1 XA4       0.734100
     19 C03          0.9720    53.5040   -22.5430 ca         1 XA4      -0.085600
     20 C04         -0.0340    52.7120   -23.0740 ca         1 XA4      -0.114000
     21 C05         -0.5000    52.9830   -24.3600 ca         1 XA4       0.442500
     22 C06         -1.5760    52.2200   -24.9850 cc         1 XA4      -0.264500
     23 C07         -2.3610    51.1890   -24.4870 cd         1 XA4       0.054100
     24 C09         -3.3010    51.0490   -22.3250 c3         1 XA4       0.158600
     25 C32         -3.1420    50.2990   -13.5660 c6         1 XA4       0.164300
     26 C35         -2.7370    48.0760   -12.8400 c6         1 XA4       0.164300
     27 C36         -1.2480    48.3600   -12.7940 c6         1 XA4       0.163300
     28 C37          1.7420    51.6010   -14.7830 ca         1 XA4      -0.104000
     29 C38          2.1190    52.4270   -15.8350 ca         1 XA4      -0.101000
     30 C39          1.6510    52.0960   -17.0920 ca         1 XA4      -0.044200
     31 N15         -3.2010    50.8140   -25.4730 na         1 XA4       0.105800
     32 N17         -3.0230    51.5360   -26.5820 nd         1 XA4      -0.524800
     33 N23          0.9240    52.2260   -20.5380 nf         1 XA4      -0.828100
     34 N25          0.5440    50.9360   -18.6410 na         1 XA4      -0.195600
     35 N33         -3.4980    49.2840   -12.5970 n3         1 XA4      -0.716600
     36 N40          1.8000    52.6960   -18.3250 na         1 XA4      -0.350600
     37 O08         -2.3650    50.5630   -23.3090 os         1 XA4      -0.343100
     38 H1          -1.7040    53.0780   -27.0450 h4         1 XA4       0.054100
     39 H2          -4.2340    49.2550   -26.3600 h1         1 XA4       0.056700
     40 H3          -4.0240    49.1090   -24.6110 h1         1 XA4       0.056700
     41 H4          -5.2090    50.2530   -25.2640 h1         1 XA4       0.056700
     42 H5          -0.2860    49.0490   -18.7230 h1         1 XA4       0.066700
     43 H6           0.2580    49.6950   -20.2600 h1         1 XA4       0.066700
     44 H7          -2.0270    51.4290   -17.7440 hc         1 XA4       0.035700
     45 H8          -3.4940    51.0080   -18.6040 hc         1 XA4       0.035700
     46 H9          -2.5660    49.7480   -17.7920 hc         1 XA4       0.035700
     47 H10         -1.5800    51.3820   -20.1810 hc         1 XA4       0.076700
     48 H11         -4.3120    50.3380   -20.6170 hc         1 XA4       0.048200
     49 H12         -4.0680    49.1180   -21.8420 hc         1 XA4       0.048200
     50 H13         -2.6500    48.5400   -19.9980 hc         1 XA4       0.048700
     51 H14         -1.6250    49.0500   -21.3130 hc         1 XA4       0.048700
     52 H15          1.8880    55.3880   -26.4320 hc         1 XA4       0.048700
     53 H16          0.7290    56.5140   -25.7470 hc         1 XA4       0.048700
     54 H17          2.3300    56.3570   -25.0240 hc         1 XA4       0.048700
     55 H18          2.2790    55.1690   -22.9410 ha         1 XA4       0.139000
     56 H19         -0.1690    49.2940   -16.3960 ha         1 XA4       0.140000
     57 H20          1.0360    48.6500   -13.8750 h1         1 XA4       0.041700
     58 H21          0.8930    50.0840   -12.8680 h1         1 XA4       0.041700
     59 H23         -1.3960    51.0260   -12.5430 h1         1 XA4       0.040450
     60 H24         -1.4150    51.3310   -14.2830 h1         1 XA4       0.040450
     61 H25         -0.4410    51.9010   -22.4900 ha         1 XA4       0.149000
     62 H26         -2.8810    51.9390   -21.8470 h1         1 XA4       0.044700
     63 H27         -4.2330    51.3450   -22.8130 h1         1 XA4       0.044700
     64 H28         -3.6900    51.2180   -13.3440 h1         1 XA4       0.037200
     65 H29         -3.4170    49.9970   -14.5930 h1         1 XA4       0.037200
     66 H30         -5.4630    49.9480   -12.3570 h1         1 XA4       0.031033
     67 H31         -5.2990    48.6460   -13.5460 h1         1 XA4       0.031033
     68 H32         -5.1630    48.2960   -11.8160 h1         1 XA4       0.031033
     69 H33         -2.9900    47.6280   -13.8170 h1         1 XA4       0.037200
     70 H34         -2.9840    47.3360   -12.0740 h1         1 XA4       0.037200
     71 H35         -0.7010    47.4420   -13.0190 h1         1 XA4       0.040450
     72 H36         -0.9700    48.6650   -11.7710 h1         1 XA4       0.040450
     73 H37          2.0770    51.8430   -13.7820 ha         1 XA4       0.118000
     74 H38          2.7390    53.2980   -15.6720 ha         1 XA4       0.130000
     75 H22          2.3200    53.5320   -18.5430 hn         1 XA4       0.401000
     76 O01          2.2620    54.1000   -20.6500 o          1 XA4      -0.651100
     77 C13         -2.4830    50.6670   -18.3780 c3         1 XA4      -0.091100
     78 C34         -4.9200    49.0290   -12.5860 c3         1 XA4       0.153100
@<TRIPOS>BOND
     1     1    22 1   
     2     1    32 2   
     3     1    38 1   
     4     2    31 1   
     5     2    39 1   
     6     2    40 1   
     7     2    41 1   
     8     3     4 1   
     9     3    34 1   
    10     3    42 1   
    11     3    43 1   
    12     4     6 1   
    13     4    47 1   
    14     4    77 1   
    15     5     6 1   
    16     5    24 1   
    17     5    48 1   
    18     5    49 1   
    19     6    50 1   
    20     6    51 1   
    21     7     8 ar  
    22     7    21 ar  
    23     8     9 1   
    24     8    10 ar  
    25     9    52 1   
    26     9    53 1   
    27     9    54 1   
    28    10    19 ar  
    29    10    55 1   
    30    11    33 2   
    31    11    34 1   
    32    11    36 1   
    33    12    13 ar  
    34    12    30 ar  
    35    12    34 1   
    36    13    14 ar  
    37    13    56 1   
    38    14    15 1   
    39    14    28 ar  
    40    15    16 1   
    41    15    57 1   
    42    15    58 1   
    43    16    17 1   
    44    16    27 1   
    45    17    25 1   
    46    17    59 1   
    47    17    60 1   
    48    18    19 1   
    49    18    33 1   
    50    18    76 2   
    51    19    20 ar  
    52    20    21 ar  
    53    20    61 1   
    54    21    22 1   
    55    22    23 2   
    56    23    31 1   
    57    23    37 1   
    58    24    37 1   
    59    24    62 1   
    60    24    63 1   
    61    25    35 1   
    62    25    64 1   
    63    25    65 1   
    64    26    27 1   
    65    26    35 1   
    66    26    69 1   
    67    26    70 1   
    68    27    71 1   
    69    27    72 1   
    70    28    29 ar  
    71    28    73 1   
    72    29    30 ar  
    73    29    74 1   
    74    30    36 1   
    75    31    32 1   
    76    35    78 1   
    77    36    75 1   
    78    44    77 1   
    79    45    77 1   
    80    46    77 1   
    81    66    78 1   
    82    67    78 1   
    83    68    78 1   
@<TRIPOS>SUBSTRUCTURE
     1 XA4         1 TEMP              0 ****  ****    0 ROOT
