@<TRIPOS>MOLECULE
XA6
   26    26     1     0     0
SMALL
bcc


@<TRIPOS>ATOM
      1 N          -17.6720    -7.3370    21.8850 n8         1 XA6      -0.885800
      2 CA         -16.3700    -7.0700    21.2980 c3         1 XA6       0.015500
      3 CB         -16.5460    -6.4590    19.8990 c3         1 XA6      -0.027100
      4 CG         -17.2950    -7.3540    18.9570 ca         1 XA6       0.002700
      5 CD1        -18.6400    -7.1490    18.6660 ca         1 XA6      -0.140000
      6 CE1        -19.3230    -7.9870    17.7980 ca         1 XA6      -0.095000
      7 CD2        -16.6550    -8.4400    18.3610 ca         1 XA6      -0.140000
      8 CE2        -17.3340    -9.2910    17.5060 ca         1 XA6      -0.095000
      9 CZ1        -18.6750    -9.0670    17.2010 ca         1 XA6      -0.187600
     10 CH         -19.3600   -10.0150    16.2710 c          1 XA6       0.688700
     11 OT         -18.9480   -11.1550    16.1100 o          1 XA6      -0.623100
     12 NT         -20.4490    -9.5430    15.6370 nt         1 XA6      -0.677000
     13 C          -15.4260    -6.1580    22.1300 c          1 XA6       0.904600
     14 O          -14.2500    -6.0820    21.7170 o          1 XA6      -0.835300
     15 H1         -17.5340    -7.8220    22.7640 hn         1 XA6       0.327800
     16 H2         -18.0850    -6.4500    22.1510 hn         1 XA6       0.327800
     17 H4         -15.8630    -8.0340    21.1720 h1         1 XA6       0.042700
     18 H5         -15.5580    -6.2450    19.4890 hc         1 XA6       0.053200
     19 H6         -17.0680    -5.5010    19.9910 hc         1 XA6       0.053200
     20 H7         -19.1650    -6.3180    19.1220 ha         1 XA6       0.136000
     21 H8         -20.3740    -7.7990    17.6160 ha         1 XA6       0.124000
     22 H9         -15.6070    -8.6210    18.5700 ha         1 XA6       0.136000
     23 H10        -16.8130   -10.1270    17.0590 ha         1 XA6       0.124000
     24 H11        -20.9220   -10.1290    14.9680 hn         1 XA6       0.303000
     25 H12        -20.6840    -8.5660    15.6250 hn         1 XA6       0.303000
     26 OXT        -15.9150    -5.5740    23.1160 o          1 XA6      -0.835300
@<TRIPOS>BOND
     1     1     2 1   
     2     1    15 1   
     3     1    16 1   
     4     2     3 1   
     5     2    13 1   
     6     2    17 1   
     7     3     4 1   
     8     3    18 1   
     9     3    19 1   
    10     4     5 ar  
    11     4     7 ar  
    12     5     6 ar  
    13     5    20 1   
    14     6     9 ar  
    15     6    21 1   
    16     7     8 ar  
    17     7    22 1   
    18     8     9 ar  
    19     8    23 1   
    20     9    10 1   
    21    10    11 2   
    22    10    12 1   
    23    12    24 1   
    24    12    25 1   
    25    13    14 1   
    26    13    26 1   
@<TRIPOS>SUBSTRUCTURE
     1 XA6         1 TEMP              0 ****  ****    0 ROOT
