@<TRIPOS>MOLECULE
XA6
   26    26     1     0     0
SMALL
No Charge or Current Charge


@<TRIPOS>ATOM
      1 N          -17.6640    -7.3980    21.9850 n8         1 XA6      -0.885800
      2 CA         -16.3480    -7.0480    21.3230 c3         1 XA6       0.015500
      3 CB         -16.5850    -6.4180    19.9240 c3         1 XA6      -0.027100
      4 CG         -17.3080    -7.3390    18.9430 ca         1 XA6       0.002700
      5 CD1        -18.6270    -7.0620    18.5370 ca         1 XA6      -0.140000
      6 CE1        -19.2870    -7.9010    17.6210 ca         1 XA6      -0.095000
      7 CD2        -16.6540    -8.4650    18.4130 ca         1 XA6      -0.140000
      8 CE2        -17.3080    -9.3070    17.4970 ca         1 XA6      -0.095000
      9 CZ1        -18.6340    -9.0390    17.0870 ca         1 XA6      -0.187600
     10 CH         -19.3150    -9.9640    16.0990 c          1 XA6       0.688700
     11 OT         -18.7700   -10.9480    15.6270 o          1 XA6      -0.623100
     12 NT         -20.5820    -9.6830    15.7270 nt         1 XA6      -0.677000
     13 C          -15.3410    -6.1480    22.1600 c          1 XA6       0.904600
     14 O          -14.2140    -6.5770    22.3820 o          1 XA6      -0.835300
     15 H1         -17.4780    -7.8740    22.8750 hn         1 XA6       0.327800
     16 H2         -18.1330    -6.5290    22.2630 hn         1 XA6       0.327800
     17 H4         -15.8260    -8.0000    21.1590 h1         1 XA6       0.042700
     18 H5         -15.6120    -6.1440    19.4970 hc         1 XA6       0.053200
     19 H6         -17.1320    -5.4750    20.0420 hc         1 XA6       0.053200
     20 H7         -19.1460    -6.1930    18.9360 ha         1 XA6       0.136000
     21 H8         -20.3060    -7.6520    17.3370 ha         1 XA6       0.124000
     22 H9         -15.6320    -8.6890    18.7110 ha         1 XA6       0.136000
     23 H10        -16.7780   -10.1730    17.1040 ha         1 XA6       0.124000
     24 H11        -21.0460   -10.2910    15.0690 hn         1 XA6       0.303000
     25 H12        -21.0510    -8.8750    16.1050 hn         1 XA6       0.303000
     26 OXT        -15.7540    -5.1030    22.6550 o          1 XA6      -0.835300
@<TRIPOS>BOND
     1     1     2 1   
     2     1    15 1   
     3     1    16 1   
     4     2     3 1   
     5     2    13 1   
     6     2    17 1   
     7     3     4 1   
     8     3    18 1   
     9     3    19 1   
    10     4     5 ar  
    11     4     7 ar  
    12     5     6 ar  
    13     5    20 1   
    14     6     9 ar  
    15     6    21 1   
    16     7     8 ar  
    17     7    22 1   
    18     8     9 ar  
    19     8    23 1   
    20     9    10 1   
    21    10    11 2   
    22    10    12 1   
    23    12    24 1   
    24    12    25 1   
    25    13    14 1   
    26    13    26 1   
@<TRIPOS>SUBSTRUCTURE
     1 XA6         1 TEMP              0 ****  ****    0 ROOT
