@<TRIPOS>MOLECULE
XA7
   77    76     1     0     0
SMALL
abcg2


@<TRIPOS>ATOM
      1 CAS         -0.0140     7.5650    -0.9030 c3         1 XA7      -0.091100
      2 CAR         -0.0090     6.1990    -1.5760 c3         1 XA7      -0.073400
      3 CAQ         -0.0100     5.0530    -0.5720 c3         1 XA7      -0.076150
      4 CAP         -0.0060     3.6790    -1.2300 c3         1 XA7      -0.074400
      5 CAO         -0.0050     2.5510    -0.2020 c3         1 XA7      -0.098650
      6 CAN         -0.0030     1.2080    -0.9060 c3         1 XA7       0.097600
      7 NAM         -0.0030    -0.0020    -0.0050 n4         1 XA7      -0.502000
      8 CAT         -0.0030    -1.2110    -0.9050 c3         1 XA7       0.097600
      9 CAU         -0.0020    -2.5550    -0.2020 c3         1 XA7      -0.098650
     10 CAV         -0.0010    -3.6820    -1.2300 c3         1 XA7      -0.074400
     11 CAW          0.0000    -5.0560    -0.5740 c3         1 XA7      -0.076150
     12 CAX         -0.0000    -6.2000    -1.5810 c3         1 XA7      -0.073400
     13 CAY          0.0000    -7.5680    -0.9110 c3         1 XA7      -0.091100
     14 CAL          1.2070    -0.0010     0.8970 c3         1 XA7       0.097600
     15 CAK          2.5500    -0.0020     0.1940 c3         1 XA7      -0.098650
     16 CAJ          3.6780    -0.0040     1.2220 c3         1 XA7      -0.074400
     17 CAI          5.0520    -0.0090     0.5650 c3         1 XA7      -0.076150
     18 CAH          6.1970    -0.0070     1.5690 c3         1 XA7      -0.073400
     19 CAG          7.5630    -0.0050     0.8980 c3         1 XA7      -0.091100
     20 CAF         -1.2120    -0.0020     0.8970 c3         1 XA7       0.097600
     21 CAA         -2.5560    -0.0030     0.1950 c3         1 XA7      -0.098650
     22 CAB         -3.6830    -0.0020     1.2240 c3         1 XA7      -0.074400
     23 CAC         -5.0580    -0.0050     0.5680 c3         1 XA7      -0.076150
     24 CAD         -6.2010    -0.0040     1.5750 c3         1 XA7      -0.073400
     25 CAE         -7.5690    -0.0090     0.9050 c3         1 XA7      -0.091100
     26 HAS1        -0.0130     8.3740    -1.6350 hc         1 XA7       0.040033
     27 HAS2        -0.8960     7.6900    -0.2730 hc         1 XA7       0.040033
     28 HAS3         0.8640     7.6930    -0.2670 hc         1 XA7       0.040033
     29 HAR1        -0.8820     6.1080    -2.2290 hc         1 XA7       0.041700
     30 HAR2         0.8670     6.1110    -2.2250 hc         1 XA7       0.041700
     31 HAQ1         0.8630     5.1450     0.0830 hc         1 XA7       0.043700
     32 HAQ2        -0.8870     5.1410     0.0790 hc         1 XA7       0.043700
     33 HAP1        -0.8810     3.5820    -1.8800 hc         1 XA7       0.049700
     34 HAP2         0.8720     3.5850    -1.8770 hc         1 XA7       0.049700
     35 HAO1         0.8710     2.6580     0.4420 hc         1 XA7       0.061700
     36 HAO2        -0.8830     2.6560     0.4400 hc         1 XA7       0.061700
     37 HAN1        -0.8760     1.1150    -1.5510 hx         1 XA7       0.088700
     38 HAN2         0.8710     1.1180    -1.5490 hx         1 XA7       0.088700
     39 HAT1        -0.8770    -1.1200    -1.5480 hx         1 XA7       0.088700
     40 HAT2         0.8700    -1.1200    -1.5500 hx         1 XA7       0.088700
     41 HAL1         1.1150     0.8730     1.5410 hx         1 XA7       0.088700
     42 HAL2         1.1140    -0.8750     1.5410 hx         1 XA7       0.088700
     43 HAF1        -1.1190    -0.8760     1.5400 hx         1 XA7       0.088700
     44 HAF2        -1.1200     0.8710     1.5420 hx         1 XA7       0.088700
     45 HAU1         0.8750    -2.6600     0.4410 hc         1 XA7       0.061700
     46 HAU2        -0.8790    -2.6620     0.4410 hc         1 XA7       0.061700
     47 HAV1        -0.8780    -3.5860    -1.8790 hc         1 XA7       0.049700
     48 HAV2         0.8750    -3.5840    -1.8790 hc         1 XA7       0.049700
     49 HAW1         0.8760    -5.1470     0.0770 hc         1 XA7       0.043700
     50 HAW2        -0.8750    -5.1480     0.0790 hc         1 XA7       0.043700
     51 HAX1        -0.8750    -6.1100    -2.2310 hc         1 XA7       0.041700
     52 HAX2         0.8740    -6.1090    -2.2320 hc         1 XA7       0.041700
     53 HAY1         0.0010    -8.3750    -1.6440 hc         1 XA7       0.040033
     54 HAY2         0.8800    -7.6950    -0.2780 hc         1 XA7       0.040033
     55 HAY3        -0.8800    -7.6960    -0.2780 hc         1 XA7       0.040033
     56 HAK1         2.6550    -0.8780    -0.4500 hc         1 XA7       0.061700
     57 HAK2         2.6570     0.8760    -0.4480 hc         1 XA7       0.061700
     58 HAJ1         3.5840     0.8730     1.8710 hc         1 XA7       0.049700
     59 HAJ2         3.5790    -0.8800     1.8710 hc         1 XA7       0.049700
     60 HAI1         5.1410    -0.8870    -0.0840 hc         1 XA7       0.043700
     61 HAI2         5.1440     0.8630    -0.0920 hc         1 XA7       0.043700
     62 HAH1         6.1050     0.8670     2.2210 hc         1 XA7       0.041700
     63 HAH2         6.1080    -0.8820     2.2210 hc         1 XA7       0.041700
     64 HAG1         8.3710    -0.0040     1.6300 hc         1 XA7       0.040033
     65 HAG2         7.6910    -0.8850     0.2640 hc         1 XA7       0.040033
     66 HAG3         7.6890     0.8750     0.2650 hc         1 XA7       0.040033
     67 HAA1        -2.6630     0.8740    -0.4490 hc         1 XA7       0.061700
     68 HAA2        -2.6630    -0.8800    -0.4460 hc         1 XA7       0.061700
     69 HAB1        -3.5850    -0.8760     1.8750 hc         1 XA7       0.049700
     70 HAB2        -3.5870     0.8760     1.8710 hc         1 XA7       0.049700
     71 HAC1        -5.1500     0.8680    -0.0870 hc         1 XA7       0.043700
     72 HAC2        -5.1480    -0.8820    -0.0820 hc         1 XA7       0.043700
     73 HAD1        -6.1090    -0.8770     2.2290 hc         1 XA7       0.041700
     74 HAD2        -6.1120     0.8720     2.2230 hc         1 XA7       0.041700
     75 HAE1        -7.6980     0.8670     0.2680 hc         1 XA7       0.040033
     76 HAE2        -7.6960    -0.8930     0.2770 hc         1 XA7       0.040033
     77 HAE3        -8.3760    -0.0070     1.6390 hc         1 XA7       0.040033
@<TRIPOS>BOND
     1     1     2 1   
     2     1    26 1   
     3     1    27 1   
     4     1    28 1   
     5     2     3 1   
     6     2    29 1   
     7     2    30 1   
     8     3     4 1   
     9     3    31 1   
    10     3    32 1   
    11     4     5 1   
    12     4    33 1   
    13     4    34 1   
    14     5     6 1   
    15     5    35 1   
    16     5    36 1   
    17     6     7 1   
    18     6    37 1   
    19     6    38 1   
    20     7     8 1   
    21     7    14 1   
    22     7    20 1   
    23     8     9 1   
    24     8    39 1   
    25     8    40 1   
    26     9    10 1   
    27     9    45 1   
    28     9    46 1   
    29    10    11 1   
    30    10    47 1   
    31    10    48 1   
    32    11    12 1   
    33    11    49 1   
    34    11    50 1   
    35    12    13 1   
    36    12    51 1   
    37    12    52 1   
    38    13    53 1   
    39    13    54 1   
    40    13    55 1   
    41    14    15 1   
    42    14    41 1   
    43    14    42 1   
    44    15    16 1   
    45    15    56 1   
    46    15    57 1   
    47    16    17 1   
    48    16    58 1   
    49    16    59 1   
    50    17    18 1   
    51    17    60 1   
    52    17    61 1   
    53    18    19 1   
    54    18    62 1   
    55    18    63 1   
    56    19    64 1   
    57    19    65 1   
    58    19    66 1   
    59    20    21 1   
    60    20    43 1   
    61    20    44 1   
    62    21    22 1   
    63    21    67 1   
    64    21    68 1   
    65    22    23 1   
    66    22    69 1   
    67    22    70 1   
    68    23    24 1   
    69    23    71 1   
    70    23    72 1   
    71    24    25 1   
    72    24    73 1   
    73    24    74 1   
    74    25    75 1   
    75    25    76 1   
    76    25    77 1   
@<TRIPOS>SUBSTRUCTURE
     1 XA7         1 TEMP              0 ****  ****    0 ROOT
