@<TRIPOS>MOLECULE
XA7
   77    76     1     0     0
SMALL
No Charge or Current Charge


@<TRIPOS>ATOM
      1 CAS         -0.0090     7.7250    -0.9470 c3         1 XA7      -0.091100
      2 CAR         -0.0080     6.3330    -1.6090 c3         1 XA7      -0.073400
      3 CAQ         -0.0070     5.1770    -0.5860 c3         1 XA7      -0.076150
      4 CAP         -0.0060     3.7830    -1.2500 c3         1 XA7      -0.074400
      5 CAO         -0.0050     2.6290    -0.2270 c3         1 XA7      -0.098650
      6 CAN         -0.0050     1.2440    -0.9090 c3         1 XA7       0.097600
      7 NAM         -0.0040    -0.0030    -0.0040 n4         1 XA7      -0.502000
      8 CAT         -0.0030    -1.2490    -0.9100 c3         1 XA7       0.097600
      9 CAU         -0.0030    -2.6350    -0.2290 c3         1 XA7      -0.098650
     10 CAV         -0.0020    -3.7870    -1.2530 c3         1 XA7      -0.074400
     11 CAW         -0.0010    -5.1820    -0.5900 c3         1 XA7      -0.076150
     12 CAX         -0.0010    -6.3380    -1.6140 c3         1 XA7      -0.073400
     13 CAY          0.0000    -7.7300    -0.9530 c3         1 XA7      -0.091100
     14 CAL          1.2430    -0.0030     0.9020 c3         1 XA7       0.097600
     15 CAK          2.6280    -0.0020     0.2200 c3         1 XA7      -0.098650
     16 CAJ          3.7820    -0.0020     1.2430 c3         1 XA7      -0.074400
     17 CAI          5.1760    -0.0020     0.5790 c3         1 XA7      -0.076150
     18 CAH          6.3320    -0.0020     1.6020 c3         1 XA7      -0.073400
     19 CAG          7.7240    -0.0010     0.9400 c3         1 XA7      -0.091100
     20 CAF         -1.2500    -0.0040     0.9030 c3         1 XA7       0.097600
     21 CAA         -2.6350    -0.0040     0.2220 c3         1 XA7      -0.098650
     22 CAB         -3.7880    -0.0050     1.2460 c3         1 XA7      -0.074400
     23 CAC         -5.1830    -0.0050     0.5830 c3         1 XA7      -0.076150
     24 CAD         -6.3380    -0.0060     1.6080 c3         1 XA7      -0.073400
     25 CAE         -7.7300    -0.0060     0.9470 c3         1 XA7      -0.091100
     26 HAS1        -0.0100     8.5120    -1.7100 hc         1 XA7       0.040033
     27 HAS2        -0.8980     7.8550    -0.3190 hc         1 XA7       0.040033
     28 HAS3         0.8810     7.8570    -0.3190 hc         1 XA7       0.040033
     29 HAR1        -0.8900     6.2460    -2.2560 hc         1 XA7       0.041700
     30 HAR2         0.8740     6.2470    -2.2570 hc         1 XA7       0.041700
     31 HAQ1         0.8750     5.2680     0.0600 hc         1 XA7       0.043700
     32 HAQ2        -0.8880     5.2670     0.0610 hc         1 XA7       0.043700
     33 HAP1        -0.8880     3.6900    -1.8960 hc         1 XA7       0.049700
     34 HAP2         0.8760     3.6910    -1.8970 hc         1 XA7       0.049700
     35 HAO1         0.8780     2.7210     0.4160 hc         1 XA7       0.061700
     36 HAO2        -0.8870     2.7210     0.4170 hc         1 XA7       0.061700
     37 HAN1        -0.8840     1.1770    -1.5520 hx         1 XA7       0.088700
     38 HAN2         0.8750     1.1780    -1.5530 hx         1 XA7       0.088700
     39 HAT1        -0.8840    -1.1830    -1.5530 hx         1 XA7       0.088700
     40 HAT2         0.8760    -1.1820    -1.5540 hx         1 XA7       0.088700
     41 HAL1         1.1770     0.8770     1.5460 hx         1 XA7       0.088700
     42 HAL2         1.1770    -0.8830     1.5450 hx         1 XA7       0.088700
     43 HAF1        -1.1830    -0.8840     1.5460 hx         1 XA7       0.088700
     44 HAF2        -1.1830     0.8760     1.5470 hx         1 XA7       0.088700
     45 HAU1         0.8800    -2.7270     0.4140 hc         1 XA7       0.061700
     46 HAU2        -0.8850    -2.7280     0.4150 hc         1 XA7       0.061700
     47 HAV1        -0.8850    -3.6950    -1.8990 hc         1 XA7       0.049700
     48 HAV2         0.8800    -3.6940    -1.9000 hc         1 XA7       0.049700
     49 HAW1         0.8810    -5.2730     0.0560 hc         1 XA7       0.043700
     50 HAW2        -0.8830    -5.2740     0.0570 hc         1 XA7       0.043700
     51 HAX1        -0.8830    -6.2510    -2.2610 hc         1 XA7       0.041700
     52 HAX2         0.8800    -6.2500    -2.2620 hc         1 XA7       0.041700
     53 HAY1         0.0000    -8.5160    -1.7170 hc         1 XA7       0.040033
     54 HAY2         0.8900    -7.8610    -0.3260 hc         1 XA7       0.040033
     55 HAY3        -0.8890    -7.8620    -0.3250 hc         1 XA7       0.040033
     56 HAK1         2.7210    -0.8840    -0.4240 hc         1 XA7       0.061700
     57 HAK2         2.7200     0.8810    -0.4230 hc         1 XA7       0.061700
     58 HAJ1         3.6890     0.8800     1.8900 hc         1 XA7       0.049700
     59 HAJ2         3.6900    -0.8840     1.8890 hc         1 XA7       0.049700
     60 HAI1         5.2670    -0.8830    -0.0680 hc         1 XA7       0.043700
     61 HAI2         5.2670     0.8800    -0.0670 hc         1 XA7       0.043700
     62 HAH1         6.2460     0.8800     2.2500 hc         1 XA7       0.041700
     63 HAH2         6.2460    -0.8840     2.2490 hc         1 XA7       0.041700
     64 HAG1         8.5110    -0.0020     1.7040 hc         1 XA7       0.040033
     65 HAG2         7.8550    -0.8910     0.3120 hc         1 XA7       0.040033
     66 HAG3         7.8550     0.8890     0.3130 hc         1 XA7       0.040033
     67 HAA1        -2.7280     0.8780    -0.4210 hc         1 XA7       0.061700
     68 HAA2        -2.7280    -0.8860    -0.4220 hc         1 XA7       0.061700
     69 HAB1        -3.6950    -0.8870     1.8930 hc         1 XA7       0.049700
     70 HAB2        -3.6960     0.8770     1.8930 hc         1 XA7       0.049700
     71 HAC1        -5.2750     0.8770    -0.0630 hc         1 XA7       0.043700
     72 HAC2        -5.2740    -0.8870    -0.0630 hc         1 XA7       0.043700
     73 HAD1        -6.2510    -0.8880     2.2550 hc         1 XA7       0.041700
     74 HAD2        -6.2510     0.8760     2.2550 hc         1 XA7       0.041700
     75 HAE1        -7.8630     0.8840     0.3190 hc         1 XA7       0.040033
     76 HAE2        -7.8620    -0.8960     0.3190 hc         1 XA7       0.040033
     77 HAE3        -8.5170    -0.0070     1.7110 hc         1 XA7       0.040033
@<TRIPOS>BOND
     1     1     2 1   
     2     1    26 1   
     3     1    27 1   
     4     1    28 1   
     5     2     3 1   
     6     2    29 1   
     7     2    30 1   
     8     3     4 1   
     9     3    31 1   
    10     3    32 1   
    11     4     5 1   
    12     4    33 1   
    13     4    34 1   
    14     5     6 1   
    15     5    35 1   
    16     5    36 1   
    17     6     7 1   
    18     6    37 1   
    19     6    38 1   
    20     7     8 1   
    21     7    14 1   
    22     7    20 1   
    23     8     9 1   
    24     8    39 1   
    25     8    40 1   
    26     9    10 1   
    27     9    45 1   
    28     9    46 1   
    29    10    11 1   
    30    10    47 1   
    31    10    48 1   
    32    11    12 1   
    33    11    49 1   
    34    11    50 1   
    35    12    13 1   
    36    12    51 1   
    37    12    52 1   
    38    13    53 1   
    39    13    54 1   
    40    13    55 1   
    41    14    15 1   
    42    14    41 1   
    43    14    42 1   
    44    15    16 1   
    45    15    56 1   
    46    15    57 1   
    47    16    17 1   
    48    16    58 1   
    49    16    59 1   
    50    17    18 1   
    51    17    60 1   
    52    17    61 1   
    53    18    19 1   
    54    18    62 1   
    55    18    63 1   
    56    19    64 1   
    57    19    65 1   
    58    19    66 1   
    59    20    21 1   
    60    20    43 1   
    61    20    44 1   
    62    21    22 1   
    63    21    67 1   
    64    21    68 1   
    65    22    23 1   
    66    22    69 1   
    67    22    70 1   
    68    23    24 1   
    69    23    71 1   
    70    23    72 1   
    71    24    25 1   
    72    24    73 1   
    73    24    74 1   
    74    25    75 1   
    75    25    76 1   
    76    25    77 1   
@<TRIPOS>SUBSTRUCTURE
     1 XA7         1 TEMP              0 ****  ****    0 ROOT
