@<TRIPOS>MOLECULE
XA8
   84    87     1     0     0
SMALL
abcg2


@<TRIPOS>ATOM
      1 N1         -19.5270    15.7260   -27.5710 n          1 XA8      -0.391800
      2 N3         -18.0540    13.6790   -24.9630 ns         1 XA8      -0.482900
      3 C4         -20.3680    17.3510   -26.0780 cx         1 XA8      -0.130700
      4 C5         -19.0620    18.0790   -25.8640 cx         1 XA8      -0.076000
      5 C6         -19.0660    19.0950   -24.7410 c3         1 XA8      -0.065100
      6 C7         -18.1710    18.4750   -27.0220 c3         1 XA8      -0.065100
      7 C8         -20.6350    16.6870   -27.4070 c5         1 XA8       0.136000
      8 C10        -19.9590    15.3410   -29.9700 c3         1 XA8       0.042700
      9 C17        -18.1700    12.4890   -24.1450 c3         1 XA8       0.097700
     10 C20        -20.4080    11.2930   -21.6780 cy         1 XA8       0.106500
     11 C21        -20.7240     9.9770   -20.9240 cy         1 XA8      -0.117400
     12 C22        -19.2020     9.7960   -20.6870 cy         1 XA8       0.106500
     13 C24        -18.7290    10.2390   -26.3280 c6         1 XA8       0.113000
     14 C26        -18.0410    10.0940   -28.7080 c6         1 XA8      -0.072400
     15 C28        -16.6810    11.4930   -27.0250 c          1 XA8       0.575000
     16 C1         -19.0650    14.1790   -25.6940 c          1 XA8       0.606100
     17 O1         -20.1720    13.6560   -25.7920 o          1 XA8      -0.613100
     18 C2         -18.7540    15.5300   -26.3470 c5         1 XA8       0.058700
     19 N2         -19.0090    15.7480   -30.9980 ns         1 XA8      -0.474900
     20 O2         -19.9950    17.7370   -31.5530 o          1 XA8      -0.554100
     21 C3         -19.2060    16.6430   -25.4210 cx         1 XA8      -0.130700
     22 N4         -18.9740    11.0320   -21.4430 nj         1 XA8      -0.423800
     23 O4         -18.8460    13.7720   -22.2580 oh         1 XA8      -0.652000
     24 N5         -17.5450    11.0700   -26.0730 n          1 XA8      -0.409800
     25 O6         -15.6750    12.1580   -26.7490 o          1 XA8      -0.589000
     26 C9         -19.1470    15.0980   -28.6960 c          1 XA8       0.595100
     27 C11        -20.8190    14.1140   -30.4040 c3         1 XA8      -0.048000
     28 C12        -21.7120    13.7020   -29.2270 c3         1 XA8      -0.091100
     29 C14        -21.7000    14.5540   -31.5800 c3         1 XA8      -0.091100
     30 C16        -17.9690    17.1900   -32.6640 c3         1 XA8       0.208000
     31 C18        -17.8630    12.8370   -22.6810 c3         1 XA8       0.083300
     32 C19        -17.8160    11.5790   -21.8060 c          1 XA8       0.572100
     33 C23        -17.2710    11.3620   -24.6760 c3         1 XA8       0.081000
     34 C25        -19.2100    10.3300   -27.7630 c6         1 XA8      -0.093400
     35 C27        -16.9850    11.1680   -28.4740 c6         1 XA8      -0.160400
     36 F1         -17.3460    18.3340   -32.3340 f          1 XA8      -0.101333
     37 F2         -18.4760    17.3420   -33.8980 f          1 XA8      -0.101333
     38 F3         -17.0370    16.2210   -32.7230 f          1 XA8      -0.101333
     39 H1         -17.1650    14.1550   -24.9850 hn         1 XA8       0.326500
     40 H2         -21.2300    17.6550   -25.5010 hc         1 XA8       0.101700
     41 H3         -19.7140    18.7790   -23.9210 hc         1 XA8       0.042700
     42 H4         -18.0570    19.2320   -24.3430 hc         1 XA8       0.042700
     43 H5         -19.4200    20.0640   -25.1010 hc         1 XA8       0.042700
     44 H6         -17.1430    18.6040   -26.6750 hc         1 XA8       0.042700
     45 H7         -18.1610    17.7470   -27.8310 hc         1 XA8       0.042700
     46 H8         -18.5040    19.4300   -27.4380 hc         1 XA8       0.042700
     47 H9         -20.6420    17.3960   -28.2340 h1         1 XA8       0.062200
     48 H10        -21.5950    16.1690   -27.3840 h1         1 XA8       0.062200
     49 H11        -20.6350    16.1780   -29.8380 h1         1 XA8       0.088700
     50 H12        -19.3190    12.5760   -30.0260 hc         1 XA8       0.043033
     51 H13        -20.6060    12.1010   -31.1390 hc         1 XA8       0.043033
     52 H14        -19.3220    13.1750   -31.6880 hc         1 XA8       0.043033
     53 H15        -19.2120    12.1830   -24.2110 h1         1 XA8       0.088700
     54 H16        -20.7580    12.2040   -21.1970 h1         1 XA8       0.061700
     55 H17        -20.6850    11.3090   -22.7310 h1         1 XA8       0.061700
     56 H18        -21.3120    10.1050   -20.0190 hc         1 XA8       0.063200
     57 H19        -21.1710     9.2050   -21.5450 hc         1 XA8       0.063200
     58 H20        -18.7470     8.9210   -21.1540 h1         1 XA8       0.061700
     59 H21        -18.8740     9.8630   -19.6490 h1         1 XA8       0.061700
     60 H22        -19.5160    10.5630   -25.6460 h1         1 XA8       0.040700
     61 H23        -18.4870     9.2000   -26.0740 h1         1 XA8       0.040700
     62 H24        -18.3660    10.1160   -29.7500 hc         1 XA8       0.045200
     63 H25        -17.6190     9.1020   -28.5230 hc         1 XA8       0.045200
     64 H26        -17.6900    15.5800   -26.5840 h1         1 XA8       0.092700
     65 H27        -18.1950    15.1670   -31.1370 hn         1 XA8       0.353500
     66 H28        -19.2030    16.4280   -24.3610 hc         1 XA8       0.107700
     67 H29        -18.5780    14.1380   -21.4060 ho         1 XA8       0.451000
     68 H30        -21.1250    13.3620   -28.3730 hc         1 XA8       0.043033
     69 H31        -22.3440    14.5300   -28.9020 hc         1 XA8       0.043033
     70 H32        -22.3640    12.8830   -29.5350 hc         1 XA8       0.043033
     71 H33        -22.3550    15.3790   -31.2920 hc         1 XA8       0.043033
     72 H34        -21.0970    14.8740   -32.4320 hc         1 XA8       0.043033
     73 H35        -22.3230    13.7190   -31.9060 hc         1 XA8       0.043033
     74 H36        -16.8630    13.2760   -22.6240 h1         1 XA8       0.067700
     75 H37        -17.4440    10.4550   -24.0950 h1         1 XA8       0.074200
     76 H38        -16.2250    11.6390   -24.5790 h1         1 XA8       0.074200
     77 H39        -19.6410    11.3190   -27.9420 hc         1 XA8       0.056700
     78 H40        -20.0020     9.5940   -27.9130 hc         1 XA8       0.056700
     79 H41        -16.0340    10.9140   -28.9430 hc         1 XA8       0.083200
     80 H42        -17.3090    12.1160   -28.9130 hc         1 XA8       0.083200
     81 O5         -16.7250    11.0900   -21.4820 o          1 XA8      -0.612100
     82 C13        -19.9560    12.9240   -30.8350 c3         1 XA8      -0.091100
     83 C15        -19.1110    16.9020   -31.6560 c          1 XA8       0.554100
     84 O3         -18.1600    14.3590   -28.7270 o          1 XA8      -0.620100
@<TRIPOS>BOND
     1     1     7 1   
     2     1    18 1   
     3     1    26 1   
     4     2     9 1   
     5     2    16 1   
     6     2    39 1   
     7     3     4 1   
     8     3     7 1   
     9     3    21 1   
    10     3    40 1   
    11     4     5 1   
    12     4     6 1   
    13     4    21 1   
    14     5    41 1   
    15     5    42 1   
    16     5    43 1   
    17     6    44 1   
    18     6    45 1   
    19     6    46 1   
    20     7    47 1   
    21     7    48 1   
    22     8    19 1   
    23     8    26 1   
    24     8    27 1   
    25     8    49 1   
    26     9    31 1   
    27     9    33 1   
    28     9    53 1   
    29    10    11 1   
    30    10    22 1   
    31    10    54 1   
    32    10    55 1   
    33    11    12 1   
    34    11    56 1   
    35    11    57 1   
    36    12    22 1   
    37    12    58 1   
    38    12    59 1   
    39    13    24 1   
    40    13    34 1   
    41    13    60 1   
    42    13    61 1   
    43    14    34 1   
    44    14    35 1   
    45    14    62 1   
    46    14    63 1   
    47    15    24 1   
    48    15    25 2   
    49    15    35 1   
    50    16    17 2   
    51    16    18 1   
    52    18    21 1   
    53    18    64 1   
    54    19    65 1   
    55    19    83 1   
    56    20    83 2   
    57    21    66 1   
    58    22    32 1   
    59    23    31 1   
    60    23    67 1   
    61    24    33 1   
    62    26    84 2   
    63    27    28 1   
    64    27    29 1   
    65    27    82 1   
    66    28    68 1   
    67    28    69 1   
    68    28    70 1   
    69    29    71 1   
    70    29    72 1   
    71    29    73 1   
    72    30    36 1   
    73    30    37 1   
    74    30    38 1   
    75    30    83 1   
    76    31    32 1   
    77    31    74 1   
    78    32    81 2   
    79    33    75 1   
    80    33    76 1   
    81    34    77 1   
    82    34    78 1   
    83    35    79 1   
    84    35    80 1   
    85    50    82 1   
    86    51    82 1   
    87    52    82 1   
@<TRIPOS>SUBSTRUCTURE
     1 XA8         1 TEMP              0 ****  ****    0 ROOT
