@<TRIPOS>MOLECULE
XA8
   84    87     1     0     0
SMALL
No Charge or Current Charge


@<TRIPOS>ATOM
      1 N1         -19.5370    15.9340   -27.5970 n          1 XA8      -0.391800
      2 N3         -18.2270    13.8280   -24.8090 ns         1 XA8      -0.482900
      3 C4         -20.1990    17.5980   -26.0180 cx         1 XA8      -0.130700
      4 C5         -18.8260    18.0790   -25.5680 cx         1 XA8      -0.076000
      5 C6         -18.7570    19.0120   -24.3600 c3         1 XA8      -0.065100
      6 C7         -17.7140    18.4520   -26.5640 c3         1 XA8      -0.065100
      7 C8         -20.3520    17.1710   -27.4820 c5         1 XA8       0.136000
      8 C10        -19.9980    15.6520   -30.1160 c3         1 XA8       0.042700
      9 C17        -18.2350    12.5620   -24.0550 c3         1 XA8       0.097700
     10 C20        -19.2680     9.5480   -22.1400 cy         1 XA8       0.106500
     11 C21        -20.3190     9.2490   -21.0250 cy         1 XA8      -0.117400
     12 C22        -19.9580    10.6610   -20.4640 cy         1 XA8       0.106500
     13 C24        -18.4750    10.1090   -26.2850 c6         1 XA8       0.113000
     14 C26        -17.7760    10.0610   -28.7240 c6         1 XA8      -0.072400
     15 C28        -16.7140    11.7690   -27.0960 c          1 XA8       0.575000
     16 C1         -19.0740    14.1270   -25.8580 c          1 XA8       0.606100
     17 O1         -19.9240    13.3500   -26.2770 o          1 XA8      -0.613100
     18 C2         -18.7910    15.5830   -26.3460 c5         1 XA8       0.058700
     19 N2         -19.1120    15.6920   -31.3080 ns         1 XA8      -0.474900
     20 O2         -20.0510    17.4860   -32.3540 o          1 XA8      -0.554100
     21 C3         -19.2650    16.6420   -25.3290 cx         1 XA8      -0.130700
     22 N4         -19.5620    10.9970   -21.8740 nj         1 XA8      -0.423800
     23 O4         -18.8590    13.9050   -22.0710 oh         1 XA8      -0.652000
     24 N5         -17.4710    11.1800   -26.0520 n          1 XA8      -0.409800
     25 O6         -15.7860    12.5320   -26.8610 o          1 XA8      -0.589000
     26 C9         -19.0950    15.4560   -28.8490 c          1 XA8       0.595100
     27 C11        -21.1360    14.5660   -30.2700 c3         1 XA8      -0.048000
     28 C12        -22.1840    14.6860   -29.1300 c3         1 XA8      -0.091100
     29 C14        -21.8930    14.7520   -31.6160 c3         1 XA8      -0.091100
     30 C16        -18.1510    16.4150   -33.4770 c3         1 XA8       0.208000
     31 C18        -18.0140    12.8140   -22.5310 c3         1 XA8       0.083300
     32 C19        -18.2360    11.5180   -21.6880 c          1 XA8       0.572100
     33 C23        -17.2110    11.5510   -24.6370 c3         1 XA8       0.081000
     34 C25        -18.9600     9.9970   -27.7450 c6         1 XA8      -0.093400
     35 C27        -17.0490    11.4090   -28.5520 c6         1 XA8      -0.160400
     36 F1         -16.8890    16.5400   -33.0020 f          1 XA8      -0.101333
     37 F2         -18.2990    17.3260   -34.4690 f          1 XA8      -0.101333
     38 F3         -18.2500    15.1880   -34.0420 f          1 XA8      -0.101333
     39 H1         -17.5940    14.5590   -24.5100 hn         1 XA8       0.326500
     40 H2         -21.0700    17.9620   -25.4760 hc         1 XA8       0.101700
     41 H3         -19.5370    18.7790   -23.6240 hc         1 XA8       0.042700
     42 H4         -17.7890    18.9270   -23.8520 hc         1 XA8       0.042700
     43 H5         -18.8910    20.0580   -24.6610 hc         1 XA8       0.042700
     44 H6         -16.7270    18.3550   -26.0940 hc         1 XA8       0.042700
     45 H7         -17.6970    17.8350   -27.4670 hc         1 XA8       0.042700
     46 H8         -17.8220    19.4930   -26.8920 hc         1 XA8       0.042700
     47 H9         -20.0050    17.9480   -28.1770 h1         1 XA8       0.062200
     48 H10        -21.4020    16.9680   -27.7220 h1         1 XA8       0.062200
     49 H11        -20.4770    16.6330   -30.0250 h1         1 XA8       0.088700
     50 H12        -20.0770    12.9140   -29.2690 hc         1 XA8       0.043033
     51 H13        -21.3210    12.3780   -30.4030 hc         1 XA8       0.043033
     52 H14        -19.7790    12.9960   -31.0170 hc         1 XA8       0.043033
     53 H15        -19.2330    12.1180   -24.1730 h1         1 XA8       0.088700
     54 H16        -19.5740     9.2210   -23.1400 h1         1 XA8       0.061700
     55 H17        -18.2620     9.1750   -21.9100 h1         1 XA8       0.061700
     56 H18        -21.3490     9.1600   -21.3900 hc         1 XA8       0.063200
     57 H19        -20.0970     8.4000   -20.3700 hc         1 XA8       0.063200
     58 H20        -19.1750    10.6450   -19.6970 h1         1 XA8       0.061700
     59 H21        -20.8230    11.2330   -20.1090 h1         1 XA8       0.061700
     60 H22        -19.3440    10.2680   -25.6300 h1         1 XA8       0.040700
     61 H23        -18.0210     9.1520   -25.9920 h1         1 XA8       0.040700
     62 H24        -18.1300     9.9500   -29.7580 hc         1 XA8       0.045200
     63 H25        -17.0820     9.2300   -28.5310 hc         1 XA8       0.045200
     64 H26        -17.7080    15.6470   -26.5120 h1         1 XA8       0.092700
     65 H27        -18.3520    15.0210   -31.3520 hn         1 XA8       0.353500
     66 H28        -19.4880    16.3440   -24.3060 hc         1 XA8       0.107700
     67 H29        -19.7900    13.5890   -22.1090 ho         1 XA8       0.451000
     68 H30        -21.7370    14.5050   -28.1470 hc         1 XA8       0.043033
     69 H31        -22.6450    15.6810   -29.1250 hc         1 XA8       0.043033
     70 H32        -22.9870    13.9510   -29.2590 hc         1 XA8       0.043033
     71 H33        -22.2910    15.7710   -31.7040 hc         1 XA8       0.043033
     72 H34        -21.2410    14.5630   -32.4770 hc         1 XA8       0.043033
     73 H35        -22.7380    14.0560   -31.6920 hc         1 XA8       0.043033
     74 H36        -16.9620    13.0990   -22.3940 h1         1 XA8       0.067700
     75 H37        -17.2330    10.6300   -24.0400 h1         1 XA8       0.074200
     76 H38        -16.1990    11.9630   -24.5310 h1         1 XA8       0.074200
     77 H39        -19.6640    10.8120   -27.9600 hc         1 XA8       0.056700
     78 H40        -19.5170     9.0600   -27.8800 hc         1 XA8       0.056700
     79 H41        -16.1500    11.4970   -29.1750 hc         1 XA8       0.083200
     80 H42        -17.7340    12.1930   -28.8940 hc         1 XA8       0.083200
     81 O5         -17.2900    11.1290   -21.0030 o          1 XA8      -0.612100
     82 C13        -20.5390    13.1300   -30.2380 c3         1 XA8      -0.091100
     83 C15        -19.2020    16.6020   -32.3470 c          1 XA8       0.554100
     84 O3         -18.0290    14.8540   -28.9280 o          1 XA8      -0.620100
@<TRIPOS>BOND
     1     1     7 1   
     2     1    18 1   
     3     1    26 1   
     4     2     9 1   
     5     2    16 1   
     6     2    39 1   
     7     3     4 1   
     8     3     7 1   
     9     3    21 1   
    10     3    40 1   
    11     4     5 1   
    12     4     6 1   
    13     4    21 1   
    14     5    41 1   
    15     5    42 1   
    16     5    43 1   
    17     6    44 1   
    18     6    45 1   
    19     6    46 1   
    20     7    47 1   
    21     7    48 1   
    22     8    19 1   
    23     8    26 1   
    24     8    27 1   
    25     8    49 1   
    26     9    31 1   
    27     9    33 1   
    28     9    53 1   
    29    10    11 1   
    30    10    22 1   
    31    10    54 1   
    32    10    55 1   
    33    11    12 1   
    34    11    56 1   
    35    11    57 1   
    36    12    22 1   
    37    12    58 1   
    38    12    59 1   
    39    13    24 1   
    40    13    34 1   
    41    13    60 1   
    42    13    61 1   
    43    14    34 1   
    44    14    35 1   
    45    14    62 1   
    46    14    63 1   
    47    15    24 1   
    48    15    25 2   
    49    15    35 1   
    50    16    17 2   
    51    16    18 1   
    52    18    21 1   
    53    18    64 1   
    54    19    65 1   
    55    19    83 1   
    56    20    83 2   
    57    21    66 1   
    58    22    32 1   
    59    23    31 1   
    60    23    67 1   
    61    24    33 1   
    62    26    84 2   
    63    27    28 1   
    64    27    29 1   
    65    27    82 1   
    66    28    68 1   
    67    28    69 1   
    68    28    70 1   
    69    29    71 1   
    70    29    72 1   
    71    29    73 1   
    72    30    36 1   
    73    30    37 1   
    74    30    38 1   
    75    30    83 1   
    76    31    32 1   
    77    31    74 1   
    78    32    81 2   
    79    33    75 1   
    80    33    76 1   
    81    34    77 1   
    82    34    78 1   
    83    35    79 1   
    84    35    80 1   
    85    50    82 1   
    86    51    82 1   
    87    52    82 1   
@<TRIPOS>SUBSTRUCTURE
     1 XA8         1 TEMP              0 ****  ****    0 ROOT
