@<TRIPOS>MOLECULE
XA9
   43    45     1     0     0
SMALL
No Charge or Current Charge


@<TRIPOS>ATOM
      1 C18        -23.4750   -12.1590    14.5770 c3         1 XA9      -0.007400
      2 C19        -24.7740   -12.9070    14.9500 c3         1 XA9      -0.083100
      3 C20        -22.5570   -11.9660    15.8050 c3         1 XA9      -0.083100
      4 C21        -22.2320   -14.1750    13.5890 ca         1 XA9      -0.118000
      5 C22        -21.5510   -14.8280    12.5360 ca         1 XA9      -0.166000
      6 C23        -21.3620   -14.1770    11.3020 ca         1 XA9      -0.063000
      7 C01        -24.8230   -15.2930     8.0290 c3         1 XA9      -0.094100
      8 C02        -23.5680   -14.7660     7.3130 c3         1 XA9       0.174600
      9 C04        -21.7940   -13.1390     7.8200 ca         1 XA9       0.580300
     10 C06        -20.0950   -12.7620     6.2860 ca         1 XA9       0.346900
     11 C07        -19.4630   -11.8480     7.1410 ca         1 XA9      -0.206000
     12 C08        -20.0330   -11.5720     8.3920 ca         1 XA9      -0.022000
     13 C09        -21.2280   -12.2230     8.7430 ca         1 XA9      -0.009800
     14 C10        -21.8300   -11.9820    10.0550 cc         1 XA9      -0.124400
     15 C11        -22.4970   -10.8080    10.4230 cd         1 XA9      -0.067300
     16 C12        -22.7560    -9.5940     9.5740 c          1 XA9       0.726200
     17 C16        -22.5280   -12.2370    12.1800 ca         1 XA9      -0.063200
     18 C17        -22.7360   -12.8600    13.4300 ca         1 XA9      -0.093300
     19 C24        -21.8680   -12.8790    11.1680 ca         1 XA9      -0.073800
     20 N05        -21.2370   -13.4040     6.6100 nb         1 XA9      -0.783000
     21 N15        -22.9230   -10.9670    11.7700 na         1 XA9      -0.198700
     22 O13        -22.3870    -9.5620     8.4090 o          1 XA9      -0.705500
     23 O14        -23.3570    -8.6630    10.0950 o          1 XA9      -0.705500
     24 H181       -23.7790   -11.1550    14.2590 hc         1 XA9       0.047700
     25 H193       -25.3310   -12.3560    15.7170 hc         1 XA9       0.029033
     26 H191       -25.4210   -13.0130    14.0710 hc         1 XA9       0.029033
     27 H192       -24.5570   -13.9090    15.3400 hc         1 XA9       0.029033
     28 H202       -23.0730   -11.3950    16.5860 hc         1 XA9       0.029033
     29 H203       -22.2540   -12.9300    16.2300 hc         1 XA9       0.029033
     30 H201       -21.6520   -11.4140    15.5230 hc         1 XA9       0.029033
     31 H211       -22.3670   -14.6980    14.5330 ha         1 XA9       0.088000
     32 H221       -21.1730   -15.8370    12.6780 ha         1 XA9       0.088000
     33 H231       -20.8410   -14.6650    10.4820 ha         1 XA9       0.104000
     34 H011       -25.3230   -16.0470     7.4100 hc         1 XA9       0.039033
     35 H012       -24.5560   -15.7550     8.9860 hc         1 XA9       0.039033
     36 H013       -25.5310   -14.4770     8.2170 hc         1 XA9       0.039033
     37 H021       -23.8560   -14.3180     6.3530 h1         1 XA9       0.034200
     38 H022       -22.8810   -15.6010     7.1210 h1         1 XA9       0.034200
     39 H061       -19.6710   -12.9940     5.3090 h4         1 XA9      -0.005900
     40 H071       -18.5410   -11.3620     6.8320 ha         1 XA9       0.108000
     41 H081       -19.5620   -10.8710     9.0770 ha         1 XA9       0.130000
     42 H151       -23.4360   -10.2810    12.3120 hn         1 XA9       0.366000
     43 O03        -22.9600   -13.7890     8.1730 os         1 XA9      -0.446300
@<TRIPOS>BOND
     1     1     2 1   
     2     1     3 1   
     3     1    18 1   
     4     1    24 1   
     5     2    25 1   
     6     2    26 1   
     7     2    27 1   
     8     3    28 1   
     9     3    29 1   
    10     3    30 1   
    11     4     5 ar  
    12     4    18 ar  
    13     4    31 1   
    14     5     6 ar  
    15     5    32 1   
    16     6    19 ar  
    17     6    33 1   
    18     7     8 1   
    19     7    34 1   
    20     7    35 1   
    21     7    36 1   
    22     8    37 1   
    23     8    38 1   
    24     8    43 1   
    25     9    13 ar  
    26     9    20 ar  
    27     9    43 1   
    28    10    11 ar  
    29    10    20 ar  
    30    10    39 1   
    31    11    12 ar  
    32    11    40 1   
    33    12    13 ar  
    34    12    41 1   
    35    13    14 1   
    36    14    15 2   
    37    14    19 1   
    38    15    16 1   
    39    15    21 1   
    40    16    22 1   
    41    16    23 1   
    42    17    18 ar  
    43    17    19 ar  
    44    17    21 1   
    45    21    42 1   
@<TRIPOS>SUBSTRUCTURE
     1 XA9         1 TEMP              0 ****  ****    0 ROOT
