@<TRIPOS>MOLECULE
XA9
   43    45     1     0     0
SMALL
abcg2


@<TRIPOS>ATOM
      1 C18        -23.2470   -12.1090    14.5920 c3         1 XA9      -0.007400
      2 C19        -24.7670   -12.1130    14.3990 c3         1 XA9      -0.083100
      3 C20        -22.8840   -12.6570    15.9670 c3         1 XA9      -0.083100
      4 C21        -22.1090   -14.1370    13.5270 ca         1 XA9      -0.118000
      5 C22        -21.5260   -14.7900    12.4260 ca         1 XA9      -0.166000
      6 C23        -21.3990   -14.1640    11.2050 ca         1 XA9      -0.063000
      7 C01        -24.5020   -15.6010     8.3470 c3         1 XA9      -0.094100
      8 C02        -23.3660   -14.9820     7.5670 c3         1 XA9       0.174600
      9 C04        -21.8400   -13.1800     7.8440 ca         1 XA9       0.580300
     10 C06        -20.3230   -12.7670     6.1980 ca         1 XA9       0.346900
     11 C07        -19.7610   -11.7180     6.8950 ca         1 XA9      -0.206000
     12 C08        -20.2870   -11.4160     8.1490 ca         1 XA9      -0.022000
     13 C09        -21.3400   -12.1490     8.6650 ca         1 XA9      -0.009800
     14 C10        -21.8880   -11.9040    10.0020 cc         1 XA9      -0.124400
     15 C11        -22.4500   -10.7510    10.5020 cd         1 XA9      -0.067300
     16 C12        -22.7870    -9.4200     9.8720 c          1 XA9       0.726200
     17 C16        -22.4300   -12.2130    12.2030 ca         1 XA9      -0.063200
     18 C17        -22.5750   -12.8370    13.4510 ca         1 XA9      -0.093300
     19 C24        -21.8620   -12.8490    11.0800 ca         1 XA9      -0.073800
     20 N05        -21.3460   -13.4830     6.6620 nb         1 XA9      -0.783000
     21 N15        -22.7680   -10.9530    11.8170 na         1 XA9      -0.198700
     22 O13        -22.5900    -9.3070     8.6520 o          1 XA9      -0.705500
     23 O14        -23.2430    -8.5690    10.6620 o          1 XA9      -0.705500
     24 H181       -22.9110   -11.0660    14.5630 hc         1 XA9       0.047700
     25 H193       -25.2590   -11.5370    15.1850 hc         1 XA9       0.029033
     26 H191       -25.0570   -11.6820    13.4400 hc         1 XA9       0.029033
     27 H192       -25.1530   -13.1330    14.4380 hc         1 XA9       0.029033
     28 H202       -23.3120   -12.0240    16.7450 hc         1 XA9       0.029033
     29 H203       -23.2740   -13.6650    16.1190 hc         1 XA9       0.029033
     30 H201       -21.8040   -12.6880    16.1180 hc         1 XA9       0.029033
     31 H211       -22.1850   -14.6800    14.4610 ha         1 XA9       0.088000
     32 H221       -21.1730   -15.8070    12.5490 ha         1 XA9       0.088000
     33 H231       -20.9400   -14.6760    10.3680 ha         1 XA9       0.104000
     34 H011       -24.8810   -16.4660     7.8030 hc         1 XA9       0.039033
     35 H012       -24.1740   -15.9420     9.3290 hc         1 XA9       0.039033
     36 H013       -25.3270   -14.9020     8.4790 hc         1 XA9       0.039033
     37 H021       -23.7050   -14.6610     6.5780 h1         1 XA9       0.034200
     38 H022       -22.5620   -15.7080     7.4150 h1         1 XA9       0.034200
     39 H061       -19.9420   -13.0510     5.2230 h4         1 XA9      -0.005900
     40 H071       -18.9340   -11.1580     6.4820 ha         1 XA9       0.108000
     41 H081       -19.8630   -10.6170     8.7420 ha         1 XA9       0.130000
     42 H151       -23.2090   -10.2390    12.3740 hn         1 XA9       0.366000
     43 O03        -22.8860   -13.8660     8.3110 os         1 XA9      -0.446300
@<TRIPOS>BOND
     1     1     2 1   
     2     1     3 1   
     3     1    18 1   
     4     1    24 1   
     5     2    25 1   
     6     2    26 1   
     7     2    27 1   
     8     3    28 1   
     9     3    29 1   
    10     3    30 1   
    11     4     5 ar  
    12     4    18 ar  
    13     4    31 1   
    14     5     6 ar  
    15     5    32 1   
    16     6    19 ar  
    17     6    33 1   
    18     7     8 1   
    19     7    34 1   
    20     7    35 1   
    21     7    36 1   
    22     8    37 1   
    23     8    38 1   
    24     8    43 1   
    25     9    13 ar  
    26     9    20 ar  
    27     9    43 1   
    28    10    11 ar  
    29    10    20 ar  
    30    10    39 1   
    31    11    12 ar  
    32    11    40 1   
    33    12    13 ar  
    34    12    41 1   
    35    13    14 1   
    36    14    15 2   
    37    14    19 1   
    38    15    16 1   
    39    15    21 1   
    40    16    22 1   
    41    16    23 1   
    42    17    18 ar  
    43    17    19 ar  
    44    17    21 1   
    45    21    42 1   
@<TRIPOS>SUBSTRUCTURE
     1 XA9         1 TEMP              0 ****  ****    0 ROOT
