@<TRIPOS>MOLECULE
XAA
   20    20     1     0     0
SMALL
No Charge or Current Charge


@<TRIPOS>ATOM
      1 C5           1.1240    -0.4770    -2.3570 cc         1 XAA       0.280900
      2 N1           0.9300    -0.8880    -1.0620 nc         1 XAA      -0.630000
      3 C4           0.2990     0.5280    -2.7960 cd         1 XAA      -0.261000
      4 C2          -0.0550    -0.1830    -0.5060 cd         1 XAA       0.451700
      5 S3          -0.8140     1.0280    -1.5360 ss         1 XAA      -0.056400
      6 C6          -0.5240    -0.3960     0.9420 c3         1 XAA       0.110200
      7 N7          -0.3280    -1.8030     1.4580 n8         1 XAA      -0.996200
      8 C8           0.0770     0.6890     1.8970 c3         1 XAA       0.126300
      9 C9          -0.6200     0.7480     3.2740 c3         1 XAA      -0.132100
     10 O10          1.4800     0.4710     2.1070 oh         1 XAA      -0.642000
     11 HC5          1.8980    -0.9630    -2.9370 h4         1 XAA       0.041100
     12 HC4          0.2840     0.9950    -3.7730 h4         1 XAA       0.161000
     13 HC6         -1.6090    -0.2200     0.9300 h1         1 XAA       0.073700
     14 HN71         0.6580    -2.0620     1.3310 hn         1 XAA       0.410000
     15 HN72        -0.4730    -1.8260     2.4740 hn         1 XAA       0.410000
     16 HC8         -0.0740     1.6680     1.4170 h1         1 XAA       0.079700
     17 HC1         -0.2080     1.5670     3.8770 hc         1 XAA       0.044700
     18 HC2         -1.6950     0.9300     3.1530 hc         1 XAA       0.044700
     19 HC3         -0.4920    -0.1850     3.8350 hc         1 XAA       0.044700
     20 H10          1.5680    -0.2750     2.7380 ho         1 XAA       0.438000
@<TRIPOS>BOND
     1     1     2 1   
     2     1     3 2   
     3     1    11 1   
     4     2     4 2   
     5     3     5 1   
     6     3    12 1   
     7     4     5 1   
     8     4     6 1   
     9     6     7 1   
    10     6     8 1   
    11     6    13 1   
    12     7    14 1   
    13     7    15 1   
    14     8     9 1   
    15     8    10 1   
    16     8    16 1   
    17     9    17 1   
    18     9    18 1   
    19     9    19 1   
    20    10    20 1   
@<TRIPOS>SUBSTRUCTURE
     1 XAA         1 TEMP              0 ****  ****    0 ROOT
