@<TRIPOS>MOLECULE
XAC
   59    61     1     0     0
SMALL
bcc


@<TRIPOS>ATOM
      1 C1           4.1020    -1.8040     0.3320 c          1 XAC       0.775100
      2 N1           4.2660     1.0530     0.3530 n          1 XAC      -0.427300
      3 O1           4.0830    -3.0230     0.3100 o          1 XAC      -0.614500
      4 C2           5.4220     0.3100     0.3510 c          1 XAC       0.830500
      5 N2           5.2970    -1.0770     0.3900 n          1 XAC      -0.507400
      6 O2           6.5150     0.8430     0.3270 o          1 XAC      -0.629500
      7 C3           0.9910    -0.0220     0.2880 cc         1 XAC       0.533000
      8 N3           1.8490     0.9920     0.3110 nd         1 XAC      -0.709000
      9 C4           3.0600     0.4150     0.3270 cd         1 XAC       0.508200
     10 N4           1.6230    -1.2090     0.2820 na         1 XAC      -0.245900
     11 O4          -7.0490     0.8600     1.3830 o          1 XAC      -0.566100
     12 C5           2.9690    -0.9500     0.3100 cc         1 XAC      -0.367200
     13 N5          -7.8030    -0.1940    -0.4790 ns         1 XAC      -0.577900
     14 C6           6.5410    -1.8480     0.4310 c3         1 XAC       0.099000
     15 N6         -11.4130    -1.0410    -0.2330 n8         1 XAC      -0.886800
     16 C7           7.0980    -2.1590    -0.9510 c3         1 XAC      -0.093400
     17 C8           4.3320     2.5070     0.2600 c3         1 XAC       0.115000
     18 C9           4.4230     2.9980    -1.1780 c3         1 XAC      -0.098400
     19 C10          4.4600     4.5190    -1.2400 c3         1 XAC      -0.087100
     20 C11          8.3610    -3.0040    -0.8520 c3         1 XAC      -0.087100
     21 C12         -3.2350     0.4740     0.3350 ca         1 XAC       0.163100
     22 C13         -2.3860     1.5180     0.7160 ca         1 XAC      -0.194500
     23 C14         -1.0190     1.3480     0.6880 ca         1 XAC      -0.058000
     24 C15         -0.4560     0.1320     0.2880 ca         1 XAC      -0.186500
     25 C16         -1.3080    -0.8960    -0.1020 ca         1 XAC      -0.058000
     26 C17         -2.6850    -0.7350    -0.0850 ca         1 XAC      -0.194500
     27 C18         -5.4570    -0.2690    -0.0000 c3         1 XAC       0.049400
     28 C19         -6.8510     0.2110     0.3710 c          1 XAC       0.673100
     29 C20         -9.2220     0.0110    -0.2890 c3         1 XAC       0.096000
     30 C21         -9.9920    -1.3000    -0.3890 c3         1 XAC       0.130800
     31 HN4          1.1980    -2.1240     0.3130 hn         1 XAC       0.324700
     32 HN5         -7.5190    -0.6650    -1.3240 hn         1 XAC       0.309500
     33 H6           7.2690    -1.2910     1.0180 h1         1 XAC       0.069700
     34 H6A          6.3360    -2.7710     0.9690 h1         1 XAC       0.069700
     35 HN6        -11.9360    -1.8800    -0.4470 hn         1 XAC       0.344300
     36 HN6A       -11.6140    -0.8300     0.7360 hn         1 XAC       0.344300
     37 H7           6.3450    -2.6890    -1.5390 hc         1 XAC       0.050700
     38 H7A          7.3160    -1.2280    -1.4780 hc         1 XAC       0.050700
     39 H8           3.4350     2.9000     0.7380 h1         1 XAC       0.071700
     40 H8A          5.1850     2.8520     0.8410 h1         1 XAC       0.071700
     41 H9           5.3180     2.5860    -1.6490 hc         1 XAC       0.052200
     42 H9A          3.5660     2.6240    -1.7420 hc         1 XAC       0.052200
     43 H10          4.5360     4.8660    -2.2700 hc         1 XAC       0.035367
     44 H10A         3.5570     4.9560    -0.8090 hc         1 XAC       0.035367
     45 H10B         5.3150     4.9170    -0.6930 hc         1 XAC       0.035367
     46 H11          8.7670    -3.2210    -1.8390 hc         1 XAC       0.034700
     47 H11A         9.1380    -2.4910    -0.2810 hc         1 XAC       0.034700
     48 H11B         8.1630    -3.9570    -0.3580 hc         1 XAC       0.034700
     49 H13         -2.8110     2.4600     1.0380 ha         1 XAC       0.147000
     50 H14         -0.3770     2.1640     0.9910 ha         1 XAC       0.142500
     51 H16         -0.9150    -1.8430    -0.4480 ha         1 XAC       0.142500
     52 H17         -3.3030    -1.5610    -0.4100 ha         1 XAC       0.147000
     53 H18         -5.3660    -0.4690    -1.0730 h1         1 XAC       0.050700
     54 H18A        -5.2810    -1.2130     0.5300 h1         1 XAC       0.050700
     55 H20         -9.3730     0.4620     0.6910 h1         1 XAC       0.068700
     56 H20A        -9.6030     0.7150    -1.0330 h1         1 XAC       0.068700
     57 H21         -9.5790    -2.0110     0.3380 h1         1 XAC       0.030200
     58 H21A        -9.8290    -1.7340    -1.3790 h1         1 XAC       0.030200
     59 O3          -4.5510     0.7280     0.4070 os         1 XAC      -0.284900
@<TRIPOS>BOND
     1     1     3 2   
     2     1     5 1   
     3     1    12 1   
     4     2     4 1   
     5     2     9 1   
     6     2    17 1   
     7     4     5 1   
     8     4     6 2   
     9     5    14 1   
    10     7     8 2   
    11     7    10 1   
    12     7    24 1   
    13     8     9 1   
    14     9    12 2   
    15    10    12 1   
    16    10    31 1   
    17    11    28 2   
    18    13    28 1   
    19    13    29 1   
    20    13    32 1   
    21    14    16 1   
    22    14    33 1   
    23    14    34 1   
    24    15    30 1   
    25    15    35 1   
    26    15    36 1   
    27    16    20 1   
    28    16    37 1   
    29    16    38 1   
    30    17    18 1   
    31    17    39 1   
    32    17    40 1   
    33    18    19 1   
    34    18    41 1   
    35    18    42 1   
    36    19    43 1   
    37    19    44 1   
    38    19    45 1   
    39    20    46 1   
    40    20    47 1   
    41    20    48 1   
    42    21    22 ar  
    43    21    26 ar  
    44    21    59 1   
    45    22    23 ar  
    46    22    49 1   
    47    23    24 ar  
    48    23    50 1   
    49    24    25 ar  
    50    25    26 ar  
    51    25    51 1   
    52    26    52 1   
    53    27    28 1   
    54    27    53 1   
    55    27    54 1   
    56    27    59 1   
    57    29    30 1   
    58    29    55 1   
    59    29    56 1   
    60    30    57 1   
    61    30    58 1   
@<TRIPOS>SUBSTRUCTURE
     1 XAC         1 TEMP              0 ****  ****    0 ROOT
