@<TRIPOS>MOLECULE
XAC
   59    61     1     0     0
SMALL
No Charge or Current Charge


@<TRIPOS>ATOM
      1 C1           4.1800    -1.8180     0.2220 c          1 XAC       0.632600
      2 N1           4.4030     1.0200     0.3910 n          1 XAC      -0.360300
      3 O1           4.0550    -3.0330     0.1490 o          1 XAC      -0.539000
      4 C2           5.5650     0.2260     0.3950 c          1 XAC       0.621000
      5 N2           5.4190    -1.1710     0.3000 n          1 XAC      -0.373400
      6 O2           6.6730     0.7410     0.4680 o          1 XAC      -0.554000
      7 C3           1.0410     0.0690     0.2100 cc         1 XAC       0.533000
      8 N3           1.9380     1.0390     0.3010 nd         1 XAC      -0.709000
      9 C4           3.1700     0.4260     0.3100 cd         1 XAC       0.442900
     10 N4           1.6680    -1.1520     0.1640 na         1 XAC      -0.245500
     11 O4          -7.2870     1.6290    -0.0200 o          1 XAC      -0.566100
     12 C5           3.0310    -0.9190     0.2290 cc         1 XAC      -0.352600
     13 N5          -7.9920    -0.5290    -0.1610 ns         1 XAC      -0.510900
     14 C6           6.6440    -2.0150     0.3390 c3         1 XAC       0.099000
     15 N6         -11.7420    -1.2470    -0.2730 n8         1 XAC      -0.997200
     16 C7           7.2250    -2.2860    -1.0650 c3         1 XAC      -0.093400
     17 C8           4.5190     2.4950     0.4910 c3         1 XAC       0.115000
     18 C9           4.4880     3.1910    -0.8860 c3         1 XAC      -0.098400
     19 C10          4.5950     4.7250    -0.7890 c3         1 XAC      -0.087100
     20 C11          8.4940    -3.1610    -1.0330 c3         1 XAC      -0.087100
     21 C12         -3.2220     0.6820     0.0830 ca         1 XAC       0.163100
     22 C13         -2.3470     1.7720     0.1740 ca         1 XAC      -0.176500
     23 C14         -0.9570     1.5720     0.2160 ca         1 XAC      -0.040000
     24 C15         -0.4160     0.2680     0.1660 ca         1 XAC      -0.186500
     25 C16         -1.3040    -0.8290     0.0740 ca         1 XAC      -0.040000
     26 C17         -2.6950    -0.6250     0.0330 ca         1 XAC      -0.176500
     27 C18         -5.5630    -0.1120    -0.0470 c3         1 XAC       0.072600
     28 C19         -7.0090     0.4370    -0.0720 c          1 XAC       0.606100
     29 C20         -9.4310    -0.2400    -0.2000 c3         1 XAC       0.096000
     30 C21        -10.2890    -1.5280    -0.2290 c3         1 XAC       0.130800
     31 HN4          1.2010    -2.0470     0.0950 hn         1 XAC       0.375000
     32 HN5         -7.6870    -1.4950    -0.2020 hn         1 XAC       0.309500
     33 H6           7.4110    -1.5330     0.9600 h1         1 XAC       0.069700
     34 H6A          6.4200    -2.9730     0.8260 h1         1 XAC       0.069700
     35 HN6        -12.2570    -2.1360    -0.2570 hn         1 XAC       0.399500
     36 HN6A       -12.0260    -0.7930     0.6050 hn         1 XAC       0.399500
     37 H7           6.4650    -2.7800    -1.6820 hc         1 XAC       0.050700
     38 H7A          7.4610    -1.3310    -1.5500 hc         1 XAC       0.050700
     39 H8           3.6890     2.8760     1.1010 h1         1 XAC       0.071700
     40 H8A          5.4420     2.7700     1.0180 h1         1 XAC       0.071700
     41 H9           5.3150     2.8120    -1.4990 hc         1 XAC       0.052200
     42 H9A          3.5580     2.9290    -1.4050 hc         1 XAC       0.052200
     43 H10          4.5710     5.1750    -1.7890 hc         1 XAC       0.035367
     44 H10A         3.7610     5.1360    -0.2070 hc         1 XAC       0.035367
     45 H10B         5.5340     5.0190    -0.3040 hc         1 XAC       0.035367
     46 H11          8.8700    -3.3260    -2.0500 hc         1 XAC       0.034700
     47 H11A         9.2850    -2.6750    -0.4490 hc         1 XAC       0.034700
     48 H11B         8.2800    -4.1380    -0.5830 hc         1 XAC       0.034700
     49 H13         -2.7480     2.7820     0.2130 ha         1 XAC       0.129000
     50 H14         -0.3020     2.4390     0.2860 ha         1 XAC       0.124500
     51 H16         -0.9300    -1.8500     0.0340 ha         1 XAC       0.124500
     52 H17         -3.3450    -1.4920    -0.0380 ha         1 XAC       0.129000
     53 H18         -5.4170    -0.6980    -0.9640 h1         1 XAC       0.050700
     54 H18A        -5.4840    -0.7920     0.8100 h1         1 XAC       0.050700
     55 H20         -9.6960     0.3560     0.6830 h1         1 XAC       0.068700
     56 H20A        -9.6460     0.3600    -1.0950 h1         1 XAC       0.068700
     57 H21        -10.0760    -2.1310     0.6650 h1         1 XAC       0.030200
     58 H21A       -10.0230    -2.1200    -1.1150 h1         1 XAC       0.030200
     59 O3          -4.5770     0.9420     0.0460 os         1 XAC      -0.308100
@<TRIPOS>BOND
     1     1     3 2   
     2     1     5 1   
     3     1    12 1   
     4     2     4 1   
     5     2     9 1   
     6     2    17 1   
     7     4     5 1   
     8     4     6 2   
     9     5    14 1   
    10     7     8 2   
    11     7    10 1   
    12     7    24 1   
    13     8     9 1   
    14     9    12 2   
    15    10    12 1   
    16    10    31 1   
    17    11    28 2   
    18    13    28 1   
    19    13    29 1   
    20    13    32 1   
    21    14    16 1   
    22    14    33 1   
    23    14    34 1   
    24    15    30 1   
    25    15    35 1   
    26    15    36 1   
    27    16    20 1   
    28    16    37 1   
    29    16    38 1   
    30    17    18 1   
    31    17    39 1   
    32    17    40 1   
    33    18    19 1   
    34    18    41 1   
    35    18    42 1   
    36    19    43 1   
    37    19    44 1   
    38    19    45 1   
    39    20    46 1   
    40    20    47 1   
    41    20    48 1   
    42    21    22 ar  
    43    21    26 ar  
    44    21    59 1   
    45    22    23 ar  
    46    22    49 1   
    47    23    24 ar  
    48    23    50 1   
    49    24    25 ar  
    50    25    26 ar  
    51    25    51 1   
    52    26    52 1   
    53    27    28 1   
    54    27    53 1   
    55    27    54 1   
    56    27    59 1   
    57    29    30 1   
    58    29    55 1   
    59    29    56 1   
    60    30    57 1   
    61    30    58 1   
@<TRIPOS>SUBSTRUCTURE
     1 XAC         1 TEMP              0 ****  ****    0 ROOT
