@<TRIPOS>MOLECULE
XAF
   51    54     1     0     0
SMALL
No Charge or Current Charge


@<TRIPOS>ATOM
      1 F1           0.1450    -2.7890     1.8350 f          1 XAF      -0.176000
      2 C9          -0.6050    -1.7420     1.4250 ca         1 XAF       0.186000
      3 C8          -1.9820    -1.7680     1.6810 ca         1 XAF      -0.157000
      4 C10         -0.0140    -0.6520     0.7350 cp         1 XAF      -0.101000
      5 C11         -0.8660     0.3960     0.3010 ca         1 XAF      -0.068000
      6 C12         -2.2590     0.3730     0.5320 ca         1 XAF       0.009000
      7 C15         -3.1020     1.4960     0.0840 cc         1 XAF      -0.121000
      8 C17         -4.4920     1.6140    -0.2110 cc         1 XAF       0.214000
      9 C21         -5.4520     0.5000    -0.4520 ca         1 XAF       0.323000
     10 C20         -6.8440     0.7530    -0.4320 ca         1 XAF      -0.139000
     11 C19         -7.7520    -0.2710    -0.7440 ca         1 XAF      -0.076000
     12 N3          -4.9750    -0.7140    -0.8430 nb         1 XAF      -0.674000
     13 C22         -5.8450    -1.7030    -1.1390 ca         1 XAF       0.357300
     14 C23         -5.2330    -3.0330    -1.5360 c3         1 XAF      -0.143400
     15 C18         -7.2370    -1.5260    -1.0980 ca         1 XAF      -0.159000
     16 N2          -4.8610     2.8840    -0.3380 nd         1 XAF      -0.515800
     17 N1          -3.6860     3.5980    -0.1240 na         1 XAF       0.009800
     18 C16         -2.6000     2.7640     0.1500 cd         1 XAF      -0.170000
     19 C7          -2.8030    -0.7150     1.2450 ca         1 XAF      -0.043000
     20 C1           1.4540    -0.5910     0.4530 cp         1 XAF       0.032000
     21 C6           1.9280    -0.2030    -0.8230 ca         1 XAF      -0.115000
     22 C5           3.3040    -0.1320    -1.1000 ca         1 XAF      -0.017500
     23 C4           4.2420    -0.4470    -0.0960 ca         1 XAF      -0.268500
     24 C3           3.7900    -0.8250     1.1840 ca         1 XAF      -0.017500
     25 C2           2.4120    -0.8940     1.4510 ca         1 XAF      -0.115000
     26 S1           6.0110    -0.3450    -0.4410 sy         1 XAF       1.051500
     27 O1           6.7280    -1.2040     0.5110 o          1 XAF      -0.522500
     28 O2           6.2170    -0.4760    -1.8900 o          1 XAF      -0.522500
     29 C13          6.4100     1.3530    -0.0110 c3         1 XAF      -0.310400
     30 C14          7.8930     1.6530    -0.2350 c3         1 XAF       0.191600
     31 O3           8.1270     3.0140     0.1280 oh         1 XAF      -0.653000
     32 H1          -2.4140    -2.6050     2.2230 ha         1 XAF       0.133000
     33 H2          -0.4280     1.2340    -0.2340 ha         1 XAF       0.117000
     34 H3          -7.2200     1.7370    -0.1630 ha         1 XAF       0.137000
     35 H4          -8.8260    -0.0950    -0.7170 ha         1 XAF       0.120000
     36 H5          -4.3260    -3.2440    -0.9560 hc         1 XAF       0.051700
     37 H6          -5.9320    -3.8590    -1.3660 hc         1 XAF       0.051700
     38 H7          -4.9620    -3.0330    -2.5980 hc         1 XAF       0.051700
     39 H8          -7.9050    -2.3460    -1.3500 ha         1 XAF       0.123000
     40 H11         -3.8600    -0.7380     1.4940 ha         1 XAF       0.125000
     41 H12          1.2190     0.0360    -1.6120 ha         1 XAF       0.127500
     42 H13          3.6330     0.1690    -2.0940 ha         1 XAF       0.138000
     43 H14          4.4980    -1.0620     1.9770 ha         1 XAF       0.138000
     44 H15          2.0820    -1.1740     2.4480 ha         1 XAF       0.127500
     45 H16          5.7860     1.9990    -0.6370 h1         1 XAF       0.106700
     46 H17          6.1430     1.4900     1.0420 h1         1 XAF       0.106700
     47 H18          8.5070     0.9800     0.3800 h1         1 XAF       0.037700
     48 H19          8.1520     1.4870    -1.2900 h1         1 XAF       0.037700
     49 H20          9.0830     3.1890    -0.0220 ho         1 XAF       0.447000
     50 H9          -3.6690     4.6170    -0.1540 hn         1 XAF       0.377000
     51 H10         -1.6170     3.1410     0.4090 h4         1 XAF       0.159000
@<TRIPOS>BOND
     1     1     2 1   
     2     2     3 ar  
     3     2     4 ar  
     4     3    19 ar  
     5     3    32 1   
     6     4     5 ar  
     7     4    20 1   
     8     5     6 ar  
     9     5    33 1   
    10     6     7 1   
    11     6    19 ar  
    12     7     8 1   
    13     7    18 2   
    14     8     9 1   
    15     8    16 2   
    16     9    10 ar  
    17     9    12 ar  
    18    10    11 ar  
    19    10    34 1   
    20    11    15 ar  
    21    11    35 1   
    22    12    13 ar  
    23    13    14 1   
    24    13    15 ar  
    25    14    36 1   
    26    14    37 1   
    27    14    38 1   
    28    15    39 1   
    29    16    17 1   
    30    17    18 1   
    31    17    50 1   
    32    18    51 1   
    33    19    40 1   
    34    20    21 ar  
    35    20    25 ar  
    36    21    22 ar  
    37    21    41 1   
    38    22    23 ar  
    39    22    42 1   
    40    23    24 ar  
    41    23    26 1   
    42    24    25 ar  
    43    24    43 1   
    44    25    44 1   
    45    26    27 2   
    46    26    28 2   
    47    26    29 1   
    48    29    30 1   
    49    29    45 1   
    50    29    46 1   
    51    30    31 1   
    52    30    47 1   
    53    30    48 1   
    54    31    49 1   
@<TRIPOS>SUBSTRUCTURE
     1 XAF         1 TEMP              0 ****  ****    0 ROOT
