@<TRIPOS>MOLECULE
XAF
   51    54     1     0     0
SMALL
bcc


@<TRIPOS>ATOM
      1 F1           0.0770    -2.7120     2.0040 f          1 XAF      -0.140900
      2 C9          -0.6760    -1.6680     1.6230 ca         1 XAF       0.150900
      3 C8          -2.0220    -1.6790     1.9330 ca         1 XAF      -0.175000
      4 C10         -0.0860    -0.6310     0.9160 cp         1 XAF      -0.101000
      5 C11         -0.9170     0.4140     0.5060 ca         1 XAF      -0.086000
      6 C12         -2.2760     0.4400     0.8000 ca         1 XAF       0.009000
      7 C15         -3.0920     1.5900     0.3990 cc         1 XAF      -0.186300
      8 C17         -4.3930     1.6520    -0.1650 cc         1 XAF       0.279300
      9 C21         -5.2720     0.5560    -0.5900 ca         1 XAF       0.388300
     10 C20         -6.6540     0.7280    -0.6540 ca         1 XAF      -0.222300
     11 C19         -7.4250    -0.3440    -1.0670 ca         1 XAF      -0.094000
     12 N3          -4.6800    -0.5880    -0.9120 nb         1 XAF      -0.674000
     13 C22         -5.4180    -1.6240    -1.2980 ca         1 XAF       0.422600
     14 C23         -4.6800    -2.8870    -1.6230 c3         1 XAF      -0.143400
     15 C18         -6.8040    -1.5410    -1.3910 ca         1 XAF      -0.242300
     16 N2          -4.7790     2.9090    -0.3230 nd         1 XAF      -0.515800
     17 N1          -3.7730     3.6440     0.1170 na         1 XAF       0.009400
     18 C16         -2.7400     2.9140     0.5570 cd         1 XAF      -0.137300
     19 C7          -2.8160    -0.6220     1.5260 ca         1 XAF      -0.061000
     20 C1           1.3490    -0.6220     0.5720 cp         1 XAF       0.032000
     21 C6           1.7410    -0.3360    -0.7360 ca         1 XAF      -0.133000
     22 C5           3.0810    -0.2810    -1.0810 ca         1 XAF      -0.035500
     23 C4           4.0370    -0.5170    -0.1050 ca         1 XAF      -0.268500
     24 C3           3.6730    -0.8100     1.2030 ca         1 XAF      -0.035500
     25 C2           2.3310    -0.8610     1.5360 ca         1 XAF      -0.133000
     26 S1           5.7530    -0.4250    -0.5290 sy         1 XAF       1.082300
     27 O1           6.5070    -1.2920     0.3750 o          1 XAF      -0.593300
     28 O2           5.8870    -0.6330    -1.9700 o          1 XAF      -0.593300
     29 C13          6.1830     1.2730    -0.1640 c3         1 XAF      -0.199600
     30 C14          7.6450     1.5390    -0.4950 c3         1 XAF       0.168400
     31 O3           7.8880     2.8880    -0.1780 oh         1 XAF      -0.590800
     32 H1          -2.4440    -2.5080     2.4860 ha         1 XAF       0.151000
     33 H2          -0.4790     1.2330    -0.0520 ha         1 XAF       0.135000
     34 H3          -7.1060     1.6710    -0.3790 ha         1 XAF       0.155000
     35 H4          -8.5020    -0.2510    -1.1280 ha         1 XAF       0.138000
     36 H5          -4.1210    -3.2360    -0.7530 hc         1 XAF       0.051700
     37 H6          -5.3560    -3.6810    -1.9360 hc         1 XAF       0.051700
     38 H7          -3.9570    -2.7190    -2.4210 hc         1 XAF       0.051700
     39 H8          -7.3830    -2.3990    -1.7090 ha         1 XAF       0.141000
     40 H11         -3.8650    -0.6230     1.7890 ha         1 XAF       0.143000
     41 H12          0.9920    -0.1690    -1.4980 ha         1 XAF       0.145500
     42 H13          3.3650    -0.0640    -2.1020 ha         1 XAF       0.156000
     43 H14          4.4210    -0.9950     1.9620 ha         1 XAF       0.156000
     44 H15          2.0550    -1.0670     2.5600 ha         1 XAF       0.145500
     45 H16          5.5190     1.9070    -0.7550 h1         1 XAF       0.106700
     46 H17          5.9780     1.4350     0.8960 h1         1 XAF       0.106700
     47 H18          8.2820     0.8640     0.0870 h1         1 XAF       0.037700
     48 H19          7.8240     1.3320    -1.5550 h1         1 XAF       0.037700
     49 H20          8.8170     3.0700    -0.3510 ho         1 XAF       0.408000
     50 H9          -3.8390     4.6490     0.0930 hn         1 XAF       0.326700
     51 H10         -1.8510     3.3660     0.9660 h4         1 XAF       0.177000
@<TRIPOS>BOND
     1     1     2 1   
     2     2     3 ar  
     3     2     4 ar  
     4     3    19 ar  
     5     3    32 1   
     6     4     5 ar  
     7     4    20 1   
     8     5     6 ar  
     9     5    33 1   
    10     6     7 1   
    11     6    19 ar  
    12     7     8 1   
    13     7    18 2   
    14     8     9 1   
    15     8    16 2   
    16     9    10 ar  
    17     9    12 ar  
    18    10    11 ar  
    19    10    34 1   
    20    11    15 ar  
    21    11    35 1   
    22    12    13 ar  
    23    13    14 1   
    24    13    15 ar  
    25    14    36 1   
    26    14    37 1   
    27    14    38 1   
    28    15    39 1   
    29    16    17 1   
    30    17    18 1   
    31    17    50 1   
    32    18    51 1   
    33    19    40 1   
    34    20    21 ar  
    35    20    25 ar  
    36    21    22 ar  
    37    21    41 1   
    38    22    23 ar  
    39    22    42 1   
    40    23    24 ar  
    41    23    26 1   
    42    24    25 ar  
    43    24    43 1   
    44    25    44 1   
    45    26    27 2   
    46    26    28 2   
    47    26    29 1   
    48    29    30 1   
    49    29    45 1   
    50    29    46 1   
    51    30    31 1   
    52    30    47 1   
    53    30    48 1   
    54    31    49 1   
@<TRIPOS>SUBSTRUCTURE
     1 XAF         1 TEMP              0 ****  ****    0 ROOT
