@<TRIPOS>MOLECULE
XAI
   18    17     1     0     0
SMALL
No Charge or Current Charge


@<TRIPOS>ATOM
      1 C01         11.7290   -11.2770    23.0960 c3         1 XAI      -0.087600
      2 C02         13.0120   -11.9380    23.6560 c3         1 XAI       0.180000
      3 C03         13.5680   -11.1230    24.8530 c3         1 XAI      -0.087600
      4 C04         12.8040   -13.4510    23.9860 c3         1 XAI      -0.005700
      5 C05         11.8940   -13.6680    25.2480 c          1 XAI       0.695000
      6 O06         12.4520   -13.9650    26.2980 o          1 XAI      -0.719500
      7 O07         10.6820   -13.7260    25.0950 o          1 XAI      -0.719500
      8 O08         14.1050   -14.1070    24.1330 oh         1 XAI      -0.724000
      9 O09         13.9980   -11.9200    22.6270 oh         1 XAI      -0.698000
     10 H013        11.3380   -11.8410    22.2400 hc         1 XAI       0.032367
     11 H011        10.9450   -11.2320    23.8610 hc         1 XAI       0.032367
     12 H012        11.9310   -10.2520    22.7630 hc         1 XAI       0.032367
     13 H032        14.4880   -11.5700    25.2470 hc         1 XAI       0.032367
     14 H031        13.7960   -10.0940    24.5510 hc         1 XAI       0.032367
     15 H033        12.8360   -11.0760    25.6690 hc         1 XAI       0.032367
     16 H041        12.2700   -13.9080    23.1420 h1         1 XAI       0.044700
     17 H081        14.1560   -14.3550    25.0900 ho         1 XAI       0.479000
     18 H091        14.4730   -12.7700    22.7950 ho         1 XAI       0.449000
@<TRIPOS>BOND
     1     1     2 1   
     2     1    10 1   
     3     1    11 1   
     4     1    12 1   
     5     2     3 1   
     6     2     4 1   
     7     2     9 1   
     8     3    13 1   
     9     3    14 1   
    10     3    15 1   
    11     4     5 1   
    12     4     8 1   
    13     4    16 1   
    14     5     6 1   
    15     5     7 1   
    16     8    17 1   
    17     9    18 1   
@<TRIPOS>SUBSTRUCTURE
     1 XAI         1 TEMP              0 ****  ****    0 ROOT
