@<TRIPOS>MOLECULE
XAJ
   40    42     1     0     0
SMALL
No Charge or Current Charge


@<TRIPOS>ATOM
      1 C10         13.3980   102.6710    16.3180 cc         1 XAJ      -0.150000
      2 C12         12.3540   103.8770    14.3200 c3         1 XAJ       0.051200
      3 C15          8.8630   102.2600    14.0160 ca         1 XAJ      -0.063000
      4 C17          6.6750   103.0140    12.8740 c3         1 XAJ       0.358300
      5 C21          8.8460   104.3760    12.8600 ca         1 XAJ       0.099400
      6 C22         10.1570   104.5690    13.1950 ca         1 XAJ       0.012100
      7 C24          9.4720   106.2340    12.0590 cc         1 XAJ       0.550500
      8 C01         11.2970   105.7290    16.6810 c3         1 XAJ      -0.030800
      9 C02         12.1690   104.5050    16.8530 cd         1 XAJ      -0.044300
     10 C03         12.6390   103.9800    18.0390 cc         1 XAJ      -0.286600
     11 C04         12.3770   104.5130    19.3990 c          1 XAJ       0.641700
     12 C06         12.7810   104.0950    21.7600 c3         1 XAJ       0.182600
     13 C07         11.3850   103.5960    22.1850 c3         1 XAJ      -0.123100
     14 C11         12.6420   103.6840    15.7920 cd         1 XAJ      -0.183300
     15 C13         10.8920   103.6420    13.9490 ca         1 XAJ      -0.018300
     16 C14         10.2190   102.4700    14.3570 ca         1 XAJ      -0.100000
     17 C16          8.1470   103.2190    13.2550 ca         1 XAJ      -0.143300
     18 F18          6.1700   101.8480    13.3390 f          1 XAJ      -0.108667
     19 F19          6.5020   102.9990    11.5320 f          1 XAJ      -0.108667
     20 F20          5.8880   103.9980    13.3670 f          1 XAJ      -0.108667
     21 N09         13.3950   102.8580    17.6960 na         1 XAJ      -0.092000
     22 N25          8.3820   105.4450    12.1220 nd         1 XAJ      -0.557100
     23 O05         12.9930   103.7630    20.3730 os         1 XAJ      -0.488100
     24 O08         11.7020   105.5040    19.6370 o          1 XAJ      -0.416000
     25 O23         10.6060   105.7520    12.7020 os         1 XAJ      -0.291700
     26 H101        13.9220   101.8510    15.8400 h4         1 XAJ       0.153000
     27 H122        12.9800   103.1950    13.7320 hc         1 XAJ       0.064700
     28 H121        12.6700   104.8830    14.0230 hc         1 XAJ       0.064700
     29 H151         8.3790   101.3450    14.3520 ha         1 XAJ       0.137000
     30 H241         9.5440   107.1930    11.5610 h5         1 XAJ       0.093800
     31 H013        10.3110   105.5720    17.1340 hc         1 XAJ       0.051367
     32 H012        11.7520   106.6050    17.1560 hc         1 XAJ       0.051367
     33 H011        11.1370   105.9820    15.6280 hc         1 XAJ       0.051367
     34 H062        13.5330   103.5910    22.3810 h1         1 XAJ       0.050700
     35 H061        12.8730   105.1750    21.9360 h1         1 XAJ       0.050700
     36 H073        11.2380   103.7600    23.2590 hc         1 XAJ       0.051367
     37 H072        10.5890   104.1270    21.6510 hc         1 XAJ       0.051367
     38 H071        11.2830   102.5220    21.9870 hc         1 XAJ       0.051367
     39 H141        10.7460   101.7210    14.9440 ha         1 XAJ       0.137000
     40 H091        13.8740   102.2590    18.3650 hn         1 XAJ       0.358000
@<TRIPOS>BOND
     1     1    14 2   
     2     1    21 1   
     3     1    26 1   
     4     2    14 1   
     5     2    15 1   
     6     2    27 1   
     7     2    28 1   
     8     3    16 ar  
     9     3    17 ar  
    10     3    29 1   
    11     4    17 1   
    12     4    18 1   
    13     4    19 1   
    14     4    20 1   
    15     5     6 ar  
    16     5    17 ar  
    17     5    22 1   
    18     6    15 ar  
    19     6    25 1   
    20     7    22 2   
    21     7    25 1   
    22     7    30 1   
    23     8     9 1   
    24     8    31 1   
    25     8    32 1   
    26     8    33 1   
    27     9    10 2   
    28     9    14 1   
    29    10    11 1   
    30    10    21 1   
    31    11    23 1   
    32    11    24 2   
    33    12    13 1   
    34    12    23 1   
    35    12    34 1   
    36    12    35 1   
    37    13    36 1   
    38    13    37 1   
    39    13    38 1   
    40    15    16 ar  
    41    16    39 1   
    42    21    40 1   
@<TRIPOS>SUBSTRUCTURE
     1 XAJ         1 TEMP              0 ****  ****    0 ROOT
