@<TRIPOS>MOLECULE
XAM
  124   129     1     0     0
SMALL
No Charge or Current Charge


@<TRIPOS>ATOM
      1 C4           7.4960     2.6370    -0.2000 c6         1 XAM       0.143300
      2 C5           6.2480     2.0570     0.5290 c6         1 XAM       0.175300
      3 C6           5.2560     3.1450     1.0110 c3         1 XAM      -0.084100
      4 C3           8.4340     1.4330    -0.5410 c6         1 XAM       0.128300
      5 CAS        -11.7230     2.1560    -0.2060 cc         1 XAM       0.116000
      6 CAT        -12.7220     1.4910    -0.9450 cc         1 XAM       0.026000
      7 ClX        -14.2100     2.2250    -1.4680 cl         1 XAM      -0.156000
      8 CAU        -12.3300     0.2020    -1.1740 cd         1 XAM      -0.123300
      9 CAY        -13.0440    -0.8990    -1.9140 c3         1 XAM      -0.030800
     10 NAV        -11.0720     0.0620    -0.5720 na         1 XAM      -0.086000
     11 CAR        -10.6890     1.2810     0.0360 cd         1 XAM      -0.237600
     12 OAQ         -9.1810     2.6950     1.2640 o          1 XAM      -0.582100
     13 NAO         -8.5840     0.5320     0.8810 ns         1 XAM      -0.496900
     14 CAM         -7.2300     0.5630     1.4460 c3         1 XAM       0.093700
     15 CAN         -7.2990     0.6760     2.9930 c3         1 XAM      -0.110100
     16 CCE         -6.3200    -0.6210     0.8940 c6         1 XAM       0.172000
     17 CCF         -4.8310    -0.3470     1.2650 c6         1 XAM      -0.142400
     18 OCK         -6.7300    -1.8490     1.5140 oh         1 XAM      -0.654000
     19 CCD         -6.4630    -0.8120    -0.6710 c6         1 XAM       0.157300
     20 OCJ         -7.7730    -1.3490    -0.9990 oh         1 XAM      -0.722000
     21 CCC         -5.3480    -1.7620    -1.2280 c6         1 XAM       0.150300
     22 CCI         -5.3060    -1.8160    -2.7770 c3         1 XAM      -0.094100
     23 OCH         -4.0480    -1.3150    -0.8050 os         1 XAM      -0.481000
     24 CCG         -3.8720    -1.3600     0.6180 c6         1 XAM       0.400300
     25 OAL         -2.5160    -0.9960     0.9210 os         1 XAM      -0.448000
     26 CAC         -1.5090    -1.9750     0.5750 c6         1 XAM       0.180300
     27 CAB         -1.5430    -3.1740     1.5730 c6         1 XAM      -0.101400
     28 CAA         -0.3750    -4.1670     1.3440 c6         1 XAM      -0.038200
     29 CAF          0.9520    -3.4220     1.3160 c2         1 XAM      -0.106400
     30 CAK          1.9080    -3.6390     2.2380 c2         1 XAM      -0.320000
     31 CAE          0.9860    -2.3560     0.2130 c6         1 XAM      -0.009500
     32 CAD         -0.1020    -1.2980     0.5620 c6         1 XAM      -0.026500
     33 CAG         -0.0340    -0.0760    -0.3520 c2         1 XAM      -0.197200
     34 CAH          1.0380     0.2480    -1.0950 c2         1 XAM      -0.224200
     35 CAI          2.3150    -0.5810    -1.1660 c6         1 XAM      -0.015500
     36 CBC          2.4210    -1.1560    -2.6070 c3         1 XAM      -0.089100
     37 CAJ          2.3620    -1.6740    -0.0500 c6         1 XAM      -0.133700
     38 OBB          3.3930    -3.7080    -0.8600 o          1 XAM      -0.599100
     39 CBA          4.9370    -2.2070     0.0320 ce         1 XAM      -0.459400
     40 CBD          5.3540    -1.1880     0.9910 c          1 XAM       0.605200
     41 OBH          4.6800    -0.6960     1.8760 o          1 XAM      -0.519000
     42 CBG          5.9870    -2.5950    -0.7060 c2         1 XAM       0.227900
     43 OBI          5.9310    -3.4640    -1.7230 oh         1 XAM      -0.500100
     44 CBF          7.2680    -1.9040    -0.2110 c5         1 XAM       0.126900
     45 CBJ          8.2560    -2.8920     0.4990 c3         1 XAM      -0.067700
     46 CBL          7.6050    -3.7340     1.6270 c3         1 XAM      -0.094100
     47 CBK          9.0080    -3.8030    -0.5000 c3         1 XAM      -0.094100
     48 NBE          6.6850    -0.8940     0.7170 n          1 XAM      -0.474800
     49 C1           7.4820     0.1380     1.4460 c6         1 XAM       0.355700
     50 C2           8.8070     0.6010     0.7370 c6         1 XAM       0.136300
     51 O2           9.6390     1.3100     1.7000 os         1 XAM      -0.427000
     52 CCL         10.9780     1.6700     1.3130 c3         1 XAM       0.148900
     53 O5           6.6440     1.2970     1.6960 os         1 XAM      -0.407000
     54 O4           8.1440     3.6430     0.6200 os         1 XAM      -0.428100
     55 CBZ          8.9410     4.5980     0.0730 c          1 XAM       0.647100
     56 OCB          9.0820     4.8310    -1.1130 o          1 XAM      -0.559000
     57 NCA          9.4810     5.3480     1.0410 nt         1 XAM      -0.601000
     58 O3           9.5950     1.7910    -1.3310 os         1 XAM      -0.452100
     59 CBW          9.4650     2.1940    -2.6340 c          1 XAM       0.608100
     60 OBY          8.4140     2.1850    -3.2580 o          1 XAM      -0.479000
     61 CBX         10.8130     2.5350    -3.2500 c3         1 XAM      -0.150100
     62 H1           7.1460     3.1090    -1.1300 h1         1 XAM       0.090700
     63 H2           5.7040     1.3970    -0.1620 h1         1 XAM       0.052700
     64 H3           4.9150     3.7650     0.1740 hc         1 XAM       0.053367
     65 H4           4.3700     2.6880     1.4680 hc         1 XAM       0.053367
     66 H5           5.7130     3.8070     1.7560 hc         1 XAM       0.053367
     67 H6           7.8400     0.7590    -1.1730 h1         1 XAM       0.074700
     68 H7         -13.2270    -0.6140    -2.9570 hc         1 XAM       0.055367
     69 H8         -12.4620    -1.8280    -1.9190 hc         1 XAM       0.055367
     70 H9         -14.0150    -1.1150    -1.4520 hc         1 XAM       0.055367
     71 H12         -6.7690     1.4930     1.0830 h1         1 XAM       0.085700
     72 H13         -6.3030     0.8030     3.4300 hc         1 XAM       0.046033
     73 H14         -7.8970     1.5420     3.2980 hc         1 XAM       0.046033
     74 H15         -7.7570    -0.2180     3.4320 hc         1 XAM       0.046033
     75 H16         -4.5430     0.6640     0.9470 hc         1 XAM       0.074200
     76 H17         -4.6910    -0.3870     2.3510 hc         1 XAM       0.074200
     77 H18         -7.4060    -2.2110     0.8970 ho         1 XAM       0.446000
     78 H19         -6.3330     0.1730    -1.1430 h1         1 XAM       0.055700
     79 H20         -7.8290    -1.3880    -1.9830 ho         1 XAM       0.509000
     80 H21         -5.5070    -2.7830    -0.8500 h1         1 XAM       0.057700
     81 H22         -5.1930    -0.8140    -3.2080 hc         1 XAM       0.047700
     82 H23         -4.4630    -2.4270    -3.1230 hc         1 XAM       0.047700
     83 H24         -6.2190    -2.2610    -3.1880 hc         1 XAM       0.047700
     84 H25         -4.0910    -2.3700     0.9950 h2         1 XAM       0.027700
     85 H26         -1.7120    -2.3480    -0.4410 h1         1 XAM       0.055700
     86 H27         -1.4900    -2.7900     2.6010 hc         1 XAM       0.048200
     87 H28         -2.4910    -3.7190     1.4910 hc         1 XAM       0.048200
     88 H29         -0.3780    -4.9300     2.1340 hc         1 XAM       0.049700
     89 H30         -0.5180    -4.7030     0.3950 hc         1 XAM       0.049700
     90 H32          2.8360    -3.0720     2.2800 ha         1 XAM       0.164500
     91 H35          0.6980    -2.8460    -0.7290 hc         1 XAM       0.070700
     92 H36          0.0940    -0.9370     1.5820 hc         1 XAM       0.072700
     93 H37         -0.9170     0.5680    -0.3600 ha         1 XAM       0.192000
     94 H38          1.0200     1.1500    -1.7110 ha         1 XAM       0.173000
     95 H39          3.1760     0.0910    -1.0370 hc         1 XAM       0.064700
     96 H40          2.3370    -0.3590    -3.3550 hc         1 XAM       0.037700
     97 H41          3.3830    -1.6520    -2.7780 hc         1 XAM       0.037700
     98 H42          1.6250    -1.8830    -2.8090 hc         1 XAM       0.037700
     99 H43          2.5880    -1.0950     0.8460 hc         1 XAM       0.097700
    100 H44          5.0020    -3.8030    -1.7090 ho         1 XAM       0.536000
    101 H45          7.7860    -1.4230    -1.0510 h1         1 XAM       0.088700
    102 H46          9.0350    -2.3000     0.9910 hc         1 XAM       0.052700
    103 H47          6.8350    -4.4050     1.2280 hc         1 XAM       0.044200
    104 H48          8.3590    -4.3490     2.1330 hc         1 XAM       0.044200
    105 H49          7.1420    -3.0880     2.3820 hc         1 XAM       0.044200
    106 H50          9.4950    -3.2050    -1.2800 hc         1 XAM       0.044200
    107 H51          9.7850    -4.3810     0.0140 hc         1 XAM       0.044200
    108 H52          8.3260    -4.5120    -0.9840 hc         1 XAM       0.044200
    109 H53          7.7580    -0.3080     2.4130 h2         1 XAM       0.093700
    110 H54          9.3740    -0.2790     0.4120 h1         1 XAM       0.047700
    111 H55         11.5040     0.8120     0.8740 h1         1 XAM       0.032367
    112 H56         10.9760     2.4930     0.5880 h1         1 XAM       0.032367
    113 H57         11.5460     2.0060     2.1900 h1         1 XAM       0.032367
    114 H58          9.2940     5.1160     2.0040 hn         1 XAM       0.330000
    115 H59         10.0710     6.1270     0.7970 hn         1 XAM       0.330000
    116 H60         11.5030     1.7030    -3.0750 hc         1 XAM       0.070367
    117 H61         10.7390     2.7890    -4.3130 hc         1 XAM       0.070367
    118 H62         11.2710     3.3420    -2.6670 hc         1 XAM       0.070367
    119 H31          1.7830    -4.3940     3.0150 ha         1 XAM       0.164500
    120 CAZ          3.5470    -2.6550    -0.2490 c          1 XAM       0.642300
    121 H11         -8.8350    -0.3030     0.3690 hn         1 XAM       0.325500
    122 CAP         -9.4430     1.6020     0.7840 c          1 XAM       0.646700
    123 H10        -10.5270    -0.7960    -0.5850 hn         1 XAM       0.368000
    124 ClW        -11.8640     3.8240     0.2800 cl         1 XAM      -0.129000
@<TRIPOS>BOND
     1     1     2 1   
     2     1     4 1   
     3     1    54 1   
     4     1    62 1   
     5     2     3 1   
     6     2    53 1   
     7     2    63 1   
     8     3    64 1   
     9     3    65 1   
    10     3    66 1   
    11     4    50 1   
    12     4    58 1   
    13     4    67 1   
    14     5     6 1   
    15     5    11 2   
    16     5   124 1   
    17     6     7 1   
    18     6     8 2   
    19     8     9 1   
    20     8    10 1   
    21     9    68 1   
    22     9    69 1   
    23     9    70 1   
    24    10    11 1   
    25    10   123 1   
    26    11   122 1   
    27    12   122 2   
    28    13    14 1   
    29    13   121 1   
    30    13   122 1   
    31    14    15 1   
    32    14    16 1   
    33    14    71 1   
    34    15    72 1   
    35    15    73 1   
    36    15    74 1   
    37    16    17 1   
    38    16    18 1   
    39    16    19 1   
    40    17    24 1   
    41    17    75 1   
    42    17    76 1   
    43    18    77 1   
    44    19    20 1   
    45    19    21 1   
    46    19    78 1   
    47    20    79 1   
    48    21    22 1   
    49    21    23 1   
    50    21    80 1   
    51    22    81 1   
    52    22    82 1   
    53    22    83 1   
    54    23    24 1   
    55    24    25 1   
    56    24    84 1   
    57    25    26 1   
    58    26    27 1   
    59    26    32 1   
    60    26    85 1   
    61    27    28 1   
    62    27    86 1   
    63    27    87 1   
    64    28    29 1   
    65    28    88 1   
    66    28    89 1   
    67    29    30 2   
    68    29    31 1   
    69    30    90 1   
    70    30   119 1   
    71    31    32 1   
    72    31    37 1   
    73    31    91 1   
    74    32    33 1   
    75    32    92 1   
    76    33    34 2   
    77    33    93 1   
    78    34    35 1   
    79    34    94 1   
    80    35    36 1   
    81    35    37 1   
    82    35    95 1   
    83    36    96 1   
    84    36    97 1   
    85    36    98 1   
    86    37    99 1   
    87    37   120 1   
    88    38   120 2   
    89    39    40 1   
    90    39    42 2   
    91    39   120 1   
    92    40    41 2   
    93    40    48 1   
    94    42    43 1   
    95    42    44 1   
    96    43   100 1   
    97    44    45 1   
    98    44    48 1   
    99    44   101 1   
   100    45    46 1   
   101    45    47 1   
   102    45   102 1   
   103    46   103 1   
   104    46   104 1   
   105    46   105 1   
   106    47   106 1   
   107    47   107 1   
   108    47   108 1   
   109    48    49 1   
   110    49    50 1   
   111    49    53 1   
   112    49   109 1   
   113    50    51 1   
   114    50   110 1   
   115    51    52 1   
   116    52   111 1   
   117    52   112 1   
   118    52   113 1   
   119    54    55 1   
   120    55    56 2   
   121    55    57 1   
   122    57   114 1   
   123    57   115 1   
   124    58    59 1   
   125    59    60 2   
   126    59    61 1   
   127    61   116 1   
   128    61   117 1   
   129    61   118 1   
@<TRIPOS>SUBSTRUCTURE
     1 XAM         1 TEMP              0 ****  ****    0 ROOT
