@<TRIPOS>MOLECULE
XAM
  124   129     1     0     0
SMALL
abcg2


@<TRIPOS>ATOM
      1 C4           7.6820     2.6520    -0.5260 c6         1 XAM       0.143300
      2 C5           6.4380     2.3400     0.2950 c6         1 XAM       0.175300
      3 C6           5.6790     3.5720     0.7360 c3         1 XAM      -0.084100
      4 C3           8.4190     1.3450    -0.8000 c6         1 XAM       0.128300
      5 CAS        -11.7350     1.5360    -0.1350 cc         1 XAM       0.116000
      6 CAT        -12.5450     0.8000    -1.0210 cc         1 XAM       0.026000
      7 CLX        -14.1400     1.2050    -1.4840 cl         1 XAM      -0.156000
      8 CAU        -11.8290    -0.2990    -1.4450 cd         1 XAM      -0.123300
      9 CAY        -12.1830    -1.3570    -2.4230 c3         1 XAM      -0.030800
     10 NAV        -10.6330    -0.2410    -0.8150 na         1 XAM      -0.086000
     11 CAR        -10.5390     0.8670    -0.0180 cd         1 XAM      -0.237600
     12 OAQ         -9.0520     2.3610     1.0220 o          1 XAM      -0.582100
     13 NAO         -8.6260     0.1380     1.1760 ns         1 XAM      -0.496900
     14 CAM         -7.2780     0.2180     1.6900 c3         1 XAM       0.093700
     15 CAN         -7.2850    -0.0200     3.1990 c3         1 XAM      -0.110100
     16 CCE         -6.3600    -0.7570     0.9040 c6         1 XAM       0.172000
     17 CCF         -4.9580    -0.7180     1.5250 c6         1 XAM      -0.142400
     18 OCK         -6.8900    -2.0680     0.9340 oh         1 XAM      -0.654000
     19 CCD         -6.2550    -0.3620    -0.5830 c6         1 XAM       0.157300
     20 OCJ         -7.4730    -0.6190    -1.2480 oh         1 XAM      -0.722000
     21 CCC         -5.1230    -1.1210    -1.2940 c6         1 XAM       0.150300
     22 CCI         -4.9300    -0.6600    -2.7250 c3         1 XAM      -0.094100
     23 OCH         -3.9030    -0.9180    -0.6130 os         1 XAM      -0.481000
     24 CCG         -3.9330    -1.4540     0.6840 c6         1 XAM       0.400300
     25 OAL         -2.6910    -1.2700     1.2590 os         1 XAM      -0.448000
     26 CAC         -1.6460    -2.0990     0.7690 c6         1 XAM       0.180300
     27 CAB         -1.5350    -3.3610     1.6170 c6         1 XAM      -0.101400
     28 CAA         -0.3180    -4.2050     1.2250 c6         1 XAM      -0.038200
     29 CAF          0.9200    -3.3550     1.2280 c2         1 XAM      -0.106400
     30 CAK          1.9310    -3.5750     2.0640 c2         1 XAM      -0.320000
     31 CAE          0.8070    -2.1780     0.2920 c6         1 XAM      -0.009500
     32 CAD         -0.3430    -1.2960     0.8150 c6         1 XAM      -0.026500
     33 CAG         -0.4310     0.0010     0.0710 c2         1 XAM      -0.197200
     34 CAH          0.5620     0.4920    -0.6600 c2         1 XAM      -0.224200
     35 CAI          1.8810    -0.1810    -0.8850 c6         1 XAM      -0.015500
     36 CBC          2.0010    -0.5690    -2.3630 c3         1 XAM      -0.089100
     37 CAJ          2.0740    -1.3490     0.1220 c6         1 XAM      -0.133700
     38 OBB          3.0970    -3.1750    -1.0310 o          1 XAM      -0.599100
     39 CBA          4.6000    -1.7150    -0.0720 ce         1 XAM      -0.459400
     40 CBD          5.1030    -0.6140     0.7610 c          1 XAM       0.605200
     41 OBH          4.4550     0.1200     1.4820 o          1 XAM      -0.519000
     42 CBG          5.6750    -2.3520    -0.6110 c2         1 XAM       0.227900
     43 OBI          5.6670    -3.3840    -1.4000 oh         1 XAM      -0.500100
     44 CBF          6.9540    -1.7410    -0.1440 c5         1 XAM       0.126900
     45 CBJ          7.7690    -2.7070     0.7560 c3         1 XAM      -0.067700
     46 CBL          6.9150    -3.3860     1.8200 c3         1 XAM      -0.094100
     47 CBK          8.5510    -3.7130    -0.0780 c3         1 XAM      -0.094100
     48 NBE          6.4660    -0.5650     0.5640 n          1 XAM      -0.474800
     49 C1           7.3650     0.3600     1.2480 c6         1 XAM       0.355700
     50 C2           8.6880     0.5470     0.4750 c6         1 XAM       0.136300
     51 O2           9.5540     1.1990     1.3580 os         1 XAM      -0.427000
     52 CCL         10.8980     0.7720     1.3280 c3         1 XAM       0.148900
     53 O5           6.7710     1.5990     1.4580 os         1 XAM      -0.407000
     54 O4           8.5000     3.5510     0.2010 os         1 XAM      -0.428100
     55 CBZ          9.2770     4.4060    -0.4780 c          1 XAM       0.647100
     56 OCB          9.2360     4.5640    -1.6810 o          1 XAM      -0.559000
     57 NCA         10.0810     5.0760     0.3600 nt         1 XAM      -0.601000
     58 O3           9.6740     1.5780    -1.4220 os         1 XAM      -0.452100
     59 CBW          9.7180     1.7770    -2.7440 c          1 XAM       0.608100
     60 OBY          8.7550     1.6870    -3.4600 o          1 XAM      -0.479000
     61 CBX         11.1120     2.0890    -3.1920 c3         1 XAM      -0.150100
     62 H1           7.3610     3.1010    -1.4700 h1         1 XAM       0.090700
     63 H2           5.7830     1.7540    -0.3630 h1         1 XAM       0.052700
     64 H3           5.3940     4.1640    -0.1340 hc         1 XAM       0.053367
     65 H4           4.7660     3.2800     1.2540 hc         1 XAM       0.053367
     66 H5           6.2690     4.2030     1.4010 hc         1 XAM       0.053367
     67 H6           7.7730     0.7480    -1.4530 h1         1 XAM       0.074700
     68 H7         -11.7980    -1.1260    -3.4170 hc         1 XAM       0.055367
     69 H8         -11.7760    -2.3220    -2.1230 hc         1 XAM       0.055367
     70 H9         -13.2640    -1.4570    -2.5020 hc         1 XAM       0.055367
     71 H12         -6.9170     1.2310     1.5040 h1         1 XAM       0.085700
     72 H13         -6.3130     0.1690     3.6530 hc         1 XAM       0.046033
     73 H14         -8.0000     0.6570     3.6650 hc         1 XAM       0.046033
     74 H15         -7.5900    -1.0380     3.4500 hc         1 XAM       0.046033
     75 H16         -4.6330     0.3200     1.6460 hc         1 XAM       0.074200
     76 H17         -4.9870    -1.1610     2.5230 hc         1 XAM       0.074200
     77 H18         -6.7470    -2.4440     1.8090 ho         1 XAM       0.446000
     78 H19         -6.0110     0.7100    -0.6130 h1         1 XAM       0.055700
     79 H20         -7.5160    -0.0500    -2.0220 ho         1 XAM       0.509000
     80 H21         -5.3780    -2.1930    -1.2970 h1         1 XAM       0.057700
     81 H22         -4.7140     0.4090    -2.7740 hc         1 XAM       0.047700
     82 H23         -4.1020    -1.1980    -3.1880 hc         1 XAM       0.047700
     83 H24         -5.8170    -0.8580    -3.3250 hc         1 XAM       0.047700
     84 H25         -4.1910    -2.5260     0.6220 h2         1 XAM       0.027700
     85 H26         -1.8350    -2.3740    -0.2770 h1         1 XAM       0.055700
     86 H27         -1.4470    -3.0700     2.6680 hc         1 XAM       0.048200
     87 H28         -2.4450    -3.9600     1.5240 hc         1 XAM       0.048200
     88 H29         -0.2180    -5.0470     1.9100 hc         1 XAM       0.049700
     89 H30         -0.4720    -4.6210     0.2240 hc         1 XAM       0.049700
     90 H32          2.8060    -2.9390     2.1190 ha         1 XAM       0.164500
     91 H35          0.5030    -2.5630    -0.6890 hc         1 XAM       0.070700
     92 H36         -0.1410    -1.0700     1.8730 hc         1 XAM       0.072700
     93 H37         -1.3480     0.5710     0.1650 ha         1 XAM       0.192000
     94 H38          0.4260     1.4430    -1.1660 ha         1 XAM       0.173000
     95 H39          2.6680     0.5540    -0.6810 hc         1 XAM       0.064700
     96 H40          1.7530     0.2900    -2.9870 hc         1 XAM       0.037700
     97 H41          3.0110    -0.8770    -2.6330 hc         1 XAM       0.037700
     98 H42          1.3150    -1.3740    -2.6290 hc         1 XAM       0.037700
     99 H43          2.3320    -0.8920     1.0810 hc         1 XAM       0.097700
    100 H44          4.7150    -3.6420    -1.5050 ho         1 XAM       0.536000
    101 H45          7.5590    -1.4570    -1.0130 h1         1 XAM       0.088700
    102 H46          8.5050    -2.0890     1.2800 hc         1 XAM       0.052700
    103 H47          6.2200    -4.1080     1.3880 hc         1 XAM       0.044200
    104 H48          7.5580    -3.9300     2.5120 hc         1 XAM       0.044200
    105 H49          6.3380    -2.6720     2.4090 hc         1 XAM       0.044200
    106 H50          9.1910    -3.2150    -0.8080 hc         1 XAM       0.044200
    107 H51          9.1930    -4.3100     0.5710 hc         1 XAM       0.044200
    108 H52          7.8990    -4.4010    -0.6140 hc         1 XAM       0.044200
    109 H53          7.6090    -0.0240     2.2460 h2         1 XAM       0.093700
    110 H54          9.1110    -0.4240     0.1870 h1         1 XAM       0.047700
    111 H55         10.9820    -0.3160     1.4310 h1         1 XAM       0.032367
    112 H56         11.4170     1.0730     0.4160 h1         1 XAM       0.032367
    113 H57         11.4000     1.2320     2.1790 h1         1 XAM       0.032367
    114 H58         10.1130     4.8740     1.3440 hn         1 XAM       0.330000
    115 H59         10.7250     5.7540    -0.0070 hn         1 XAM       0.330000
    116 H60         11.7680     1.2400    -3.0010 hc         1 XAM       0.070367
    117 H61         11.1280     2.3140    -4.2540 hc         1 XAM       0.070367
    118 H62         11.5070     2.9390    -2.6360 hc         1 XAM       0.070367
    119 H31          1.9120    -4.4120     2.7520 ha         1 XAM       0.164500
    120 CAZ          3.2490    -2.1630    -0.3450 c          1 XAM       0.642300
    121 H11         -8.9870    -0.7910     1.0220 hn         1 XAM       0.325500
    122 CAP         -9.3430     1.1980     0.7740 c          1 XAM       0.646700
    123 H10         -9.8540    -0.8500    -1.0240 hn         1 XAM       0.368000
    124 CLW        -12.2150     2.9560     0.6750 cl         1 XAM      -0.129000
@<TRIPOS>BOND
     1     1     2 1   
     2     1     4 1   
     3     1    54 1   
     4     1    62 1   
     5     2     3 1   
     6     2    53 1   
     7     2    63 1   
     8     3    64 1   
     9     3    65 1   
    10     3    66 1   
    11     4    50 1   
    12     4    58 1   
    13     4    67 1   
    14     5     6 1   
    15     5    11 2   
    16     5   124 1   
    17     6     7 1   
    18     6     8 2   
    19     8     9 1   
    20     8    10 1   
    21     9    68 1   
    22     9    69 1   
    23     9    70 1   
    24    10    11 1   
    25    10   123 1   
    26    11   122 1   
    27    12   122 2   
    28    13    14 1   
    29    13   121 1   
    30    13   122 1   
    31    14    15 1   
    32    14    16 1   
    33    14    71 1   
    34    15    72 1   
    35    15    73 1   
    36    15    74 1   
    37    16    17 1   
    38    16    18 1   
    39    16    19 1   
    40    17    24 1   
    41    17    75 1   
    42    17    76 1   
    43    18    77 1   
    44    19    20 1   
    45    19    21 1   
    46    19    78 1   
    47    20    79 1   
    48    21    22 1   
    49    21    23 1   
    50    21    80 1   
    51    22    81 1   
    52    22    82 1   
    53    22    83 1   
    54    23    24 1   
    55    24    25 1   
    56    24    84 1   
    57    25    26 1   
    58    26    27 1   
    59    26    32 1   
    60    26    85 1   
    61    27    28 1   
    62    27    86 1   
    63    27    87 1   
    64    28    29 1   
    65    28    88 1   
    66    28    89 1   
    67    29    30 2   
    68    29    31 1   
    69    30    90 1   
    70    30   119 1   
    71    31    32 1   
    72    31    37 1   
    73    31    91 1   
    74    32    33 1   
    75    32    92 1   
    76    33    34 2   
    77    33    93 1   
    78    34    35 1   
    79    34    94 1   
    80    35    36 1   
    81    35    37 1   
    82    35    95 1   
    83    36    96 1   
    84    36    97 1   
    85    36    98 1   
    86    37    99 1   
    87    37   120 1   
    88    38   120 2   
    89    39    40 1   
    90    39    42 2   
    91    39   120 1   
    92    40    41 2   
    93    40    48 1   
    94    42    43 1   
    95    42    44 1   
    96    43   100 1   
    97    44    45 1   
    98    44    48 1   
    99    44   101 1   
   100    45    46 1   
   101    45    47 1   
   102    45   102 1   
   103    46   103 1   
   104    46   104 1   
   105    46   105 1   
   106    47   106 1   
   107    47   107 1   
   108    47   108 1   
   109    48    49 1   
   110    49    50 1   
   111    49    53 1   
   112    49   109 1   
   113    50    51 1   
   114    50   110 1   
   115    51    52 1   
   116    52   111 1   
   117    52   112 1   
   118    52   113 1   
   119    54    55 1   
   120    55    56 2   
   121    55    57 1   
   122    57   114 1   
   123    57   115 1   
   124    58    59 1   
   125    59    60 2   
   126    59    61 1   
   127    61   116 1   
   128    61   117 1   
   129    61   118 1   
@<TRIPOS>SUBSTRUCTURE
     1 XAM         1 TEMP              0 ****  ****    0 ROOT
