@<TRIPOS>MOLECULE
XAN
   15    16     1     0     0
SMALL
bcc


@<TRIPOS>ATOM
      1 N9          -1.4140    -0.0430     1.8080 na         1 XAN      -0.324900
      2 C4          -0.8420    -0.0330     0.5910 cc         1 XAN      -0.005000
      3 N3          -1.4270    -0.0130    -0.6320 ns         1 XAN      -0.454100
      4 C2          -0.6460    -0.0050    -1.7600 c          1 XAN       0.843500
      5 O2          -1.1150     0.0140    -2.8790 o          1 XAN      -0.623500
      6 N1           0.7120    -0.0200    -1.5260 ns         1 XAN      -0.616500
      7 C6           1.4080    -0.0400    -0.3150 c          1 XAN       0.670000
      8 O6           2.6230    -0.0490    -0.2940 o          1 XAN      -0.567500
      9 C5           0.5140    -0.0480     0.8050 cd         1 XAN       0.182800
     10 N7           0.7770    -0.0660     2.1500 nd         1 XAN      -0.577000
     11 C8          -0.3880    -0.0630     2.7180 cc         1 XAN       0.394400
     12 HN9         -2.4000    -0.0360     2.0210 hn         1 XAN       0.312700
     13 HN3         -2.4310    -0.0040    -0.7460 hn         1 XAN       0.350500
     14 HN1          1.2820    -0.0110    -2.3620 hn         1 XAN       0.345500
     15 H8          -0.5830    -0.0730     3.7790 h5         1 XAN       0.068100
@<TRIPOS>BOND
     1     1     2 1   
     2     1    11 1   
     3     1    12 1   
     4     2     3 1   
     5     2     9 2   
     6     3     4 1   
     7     3    13 1   
     8     4     5 2   
     9     4     6 1   
    10     6     7 1   
    11     6    14 1   
    12     7     8 2   
    13     7     9 1   
    14     9    10 1   
    15    10    11 2   
    16    11    15 1   
@<TRIPOS>SUBSTRUCTURE
     1 XAN         1 TEMP              0 ****  ****    0 ROOT
