@<TRIPOS>MOLECULE
XAN
   15    16     1     0     0
SMALL
No Charge or Current Charge


@<TRIPOS>ATOM
      1 N9          -1.4340    -0.0430     1.8490 na         1 XAN      -0.324500
      2 C4          -0.8380    -0.0330     0.6200 cc         1 XAN       0.009600
      3 N3          -1.3850    -0.0130    -0.6420 ns         1 XAN      -0.500600
      4 C2          -0.6320    -0.0050    -1.7860 c          1 XAN       0.634000
      5 O2          -1.1270     0.0130    -2.8960 o          1 XAN      -0.548000
      6 N1           0.7210    -0.0180    -1.5760 ns         1 XAN      -0.482500
      7 C6           1.4070    -0.0390    -0.3780 c          1 XAN       0.527500
      8 O6           2.6300    -0.0490    -0.3430 o          1 XAN      -0.492000
      9 C5           0.5080    -0.0460     0.8250 cd         1 XAN       0.117500
     10 N7           0.7730    -0.0660     2.1900 nd         1 XAN      -0.577000
     11 C8          -0.4190    -0.0630     2.7840 cc         1 XAN       0.394400
     12 HN9         -2.4240    -0.0380     2.0550 hn         1 XAN       0.363000
     13 HN3         -2.3900    -0.0030    -0.7850 hn         1 XAN       0.464000
     14 HN1          1.2890    -0.0130    -2.4090 hn         1 XAN       0.345500
     15 H8          -0.6090    -0.0750     3.8510 h5         1 XAN       0.068100
@<TRIPOS>BOND
     1     1     2 1   
     2     1    11 1   
     3     1    12 1   
     4     2     3 1   
     5     2     9 2   
     6     3     4 1   
     7     3    13 1   
     8     4     5 2   
     9     4     6 1   
    10     6     7 1   
    11     6    14 1   
    12     7     8 2   
    13     7     9 1   
    14     9    10 1   
    15    10    11 2   
    16    11    15 1   
@<TRIPOS>SUBSTRUCTURE
     1 XAN         1 TEMP              0 ****  ****    0 ROOT
