@<TRIPOS>MOLECULE
XAO
   46    46     1     0     0
SMALL
abcg2


@<TRIPOS>ATOM
      1 C1          -0.1400    -0.2840    -0.2780 c3         1 XAO       0.132500
      2 N           -0.3100    -1.7370    -0.2790 n8         1 XAO      -1.034200
      3 C2          -0.7430     0.2330     1.0440 c3         1 XAO       0.144300
      4 O2          -1.9930    -0.3800     1.2450 oh         1 XAO      -0.663000
      5 C3           0.1920     0.0070     2.2460 c3         1 XAO       0.138300
      6 O3           1.4120     0.6990     2.0530 oh         1 XAO      -0.662000
      7 C4          -0.4760     0.3920     3.5630 c3         1 XAO      -0.100400
      8 C5           0.4170     0.2890     4.8020 c3         1 XAO      -0.055700
      9 C6          -0.3610     0.7360     6.0360 c3         1 XAO      -0.087600
     10 C7           0.9630    -1.1220     5.0030 c3         1 XAO      -0.087600
     11 C14         -0.8520     0.3490    -1.4720 c3         1 XAO      -0.079400
     12 C8          -0.3870    -0.1090    -2.8550 c6         1 XAO      -0.063700
     13 C9          -1.1430     0.6580    -3.9410 c6         1 XAO      -0.072900
     14 C13          1.1210     0.0390    -3.0570 c6         1 XAO      -0.072900
     15 C10         -0.7190     0.2400    -5.3450 c6         1 XAO      -0.073400
     16 C12          1.5510    -0.3800    -4.4600 c6         1 XAO      -0.073400
     17 C11          0.7870     0.3870    -5.5340 c6         1 XAO      -0.074400
     18 H1           0.9150     0.0090    -0.3150 h1         1 XAO       0.048700
     19 HN1         -0.2610    -2.1130    -1.2160 hn         1 XAO       0.409000
     20 HN2          0.4350    -2.1840     0.2400 hn         1 XAO       0.409000
     21 H2          -0.9060     1.3180     0.9560 h1         1 XAO       0.054700
     22 HO2         -1.8760    -1.2620     0.8460 ho         1 XAO       0.474000
     23 H3           0.4650    -1.0540     2.2880 h1         1 XAO       0.071700
     24 HO3          1.2280     1.6440     2.0880 ho         1 XAO       0.438000
     25 H41         -1.3530    -0.2440     3.7090 hc         1 XAO       0.051700
     26 H42         -0.8560     1.4190     3.4830 hc         1 XAO       0.051700
     27 H5           1.2650     0.9700     4.6800 hc         1 XAO       0.048700
     28 H61          0.2670     0.7250     6.9280 hc         1 XAO       0.032200
     29 H62         -0.7500     1.7500     5.9200 hc         1 XAO       0.032200
     30 H63         -1.2120     0.0760     6.2230 hc         1 XAO       0.032200
     31 H71          0.1490    -1.8480     5.0790 hc         1 XAO       0.032200
     32 H72          1.6100    -1.4360     4.1830 hc         1 XAO       0.032200
     33 H73          1.5490    -1.1860     5.9210 hc         1 XAO       0.032200
     34 H7'1        -1.9300     0.1760    -1.3870 hc         1 XAO       0.052200
     35 H7'2        -0.7100     1.4330    -1.4010 hc         1 XAO       0.052200
     36 H8          -0.6400    -1.1710    -2.9840 hc         1 XAO       0.042700
     37 H2'1        -2.2200     0.5120    -3.8130 hc         1 XAO       0.039200
     38 H2'2        -0.9600     1.7320    -3.8110 hc         1 XAO       0.039200
     39 H6'1         1.4050     1.0840    -2.8820 hc         1 XAO       0.039200
     40 H6'2         1.6680    -0.5540    -2.3180 hc         1 XAO       0.039200
     41 H3'1        -1.0060    -0.8040    -5.5150 hc         1 XAO       0.038950
     42 H3'2        -1.2550     0.8320    -6.0910 hc         1 XAO       0.038950
     43 H5'1         1.3720    -1.4540    -4.5840 hc         1 XAO       0.038950
     44 H5'2         2.6270    -0.2330    -4.5800 hc         1 XAO       0.038950
     45 H4'1         1.0820     0.0410    -6.5280 hc         1 XAO       0.039200
     46 H4'2         1.0560     1.4480    -5.4820 hc         1 XAO       0.039200
@<TRIPOS>BOND
     1     1     2 1   
     2     1     3 1   
     3     1    11 1   
     4     1    18 1   
     5     2    19 1   
     6     2    20 1   
     7     3     4 1   
     8     3     5 1   
     9     3    21 1   
    10     4    22 1   
    11     5     6 1   
    12     5     7 1   
    13     5    23 1   
    14     6    24 1   
    15     7     8 1   
    16     7    25 1   
    17     7    26 1   
    18     8     9 1   
    19     8    10 1   
    20     8    27 1   
    21     9    28 1   
    22     9    29 1   
    23     9    30 1   
    24    10    31 1   
    25    10    32 1   
    26    10    33 1   
    27    11    12 1   
    28    11    34 1   
    29    11    35 1   
    30    12    13 1   
    31    12    14 1   
    32    12    36 1   
    33    13    15 1   
    34    13    37 1   
    35    13    38 1   
    36    14    16 1   
    37    14    39 1   
    38    14    40 1   
    39    15    17 1   
    40    15    41 1   
    41    15    42 1   
    42    16    17 1   
    43    16    43 1   
    44    16    44 1   
    45    17    45 1   
    46    17    46 1   
@<TRIPOS>SUBSTRUCTURE
     1 XAO         1 TEMP              0 ****  ****    0 ROOT
