@<TRIPOS>MOLECULE
XAO
   46    46     1     0     0
SMALL
No Charge or Current Charge


@<TRIPOS>ATOM
      1 C1          -0.2630    -0.4120    -0.2730 c3         1 XAO       0.132500
      2 N           -0.5270    -1.8820    -0.3570 n8         1 XAO      -1.034200
      3 C2          -0.8240     0.1450     1.0770 c3         1 XAO       0.144300
      4 O2          -2.0070    -0.6250     1.3010 oh         1 XAO      -0.663000
      5 C3           0.1650    -0.0180     2.2820 c3         1 XAO       0.138300
      6 O3           1.3660     0.7350     2.0320 oh         1 XAO      -0.662000
      7 C4          -0.4420     0.4480     3.6370 c3         1 XAO      -0.100400
      8 C5           0.4730     0.2860     4.8870 c3         1 XAO      -0.055700
      9 C6          -0.1940     0.8970     6.1400 c3         1 XAO      -0.087600
     10 C7           0.8760    -1.1860     5.1450 c3         1 XAO      -0.087600
     11 C14         -0.8950     0.3010    -1.5010 c3         1 XAO      -0.079400
     12 C8          -0.3710    -0.1160    -2.9150 c6         1 XAO      -0.063700
     13 C9          -1.1710     0.6170    -4.0300 c6         1 XAO      -0.072900
     14 C13          1.1550     0.1460    -3.0910 c6         1 XAO      -0.072900
     15 C10         -0.6820     0.2190    -5.4450 c6         1 XAO      -0.073400
     16 C12          1.6430    -0.2470    -4.5080 c6         1 XAO      -0.073400
     17 C11          0.8340     0.4830    -5.6060 c6         1 XAO      -0.074400
     18 H1           0.8220    -0.2470    -0.3110 h1         1 XAO       0.048700
     19 HN1         -0.3960    -2.1800    -1.3310 hn         1 XAO       0.409000
     20 HN2          0.2260    -2.3840     0.1320 hn         1 XAO       0.409000
     21 H2          -1.0670     1.2110     0.9680 h1         1 XAO       0.054700
     22 HO2         -1.8090    -1.3890     0.6890 ho         1 XAO       0.474000
     23 H3           0.4090    -1.0860     2.3600 h1         1 XAO       0.071700
     24 HO3          1.1680     1.6740     2.2380 ho         1 XAO       0.438000
     25 H41         -1.3690    -0.1080     3.8210 hc         1 XAO       0.051700
     26 H42         -0.7360     1.5020     3.5450 hc         1 XAO       0.051700
     27 H5           1.3960     0.8530     4.7130 hc         1 XAO       0.048700
     28 H61          0.4740     0.8290     7.0080 hc         1 XAO       0.032200
     29 H62         -0.4280     1.9560     5.9790 hc         1 XAO       0.032200
     30 H63         -1.1250     0.3720     6.3830 hc         1 XAO       0.032200
     31 H71         -0.0110    -1.8180     5.2720 hc         1 XAO       0.032200
     32 H72          1.4700    -1.5860     4.3150 hc         1 XAO       0.032200
     33 H73          1.4860    -1.2660     6.0540 hc         1 XAO       0.032200
     34 H7'1        -1.9820     0.1510    -1.4620 hc         1 XAO       0.052200
     35 H7'2        -0.7440     1.3810    -1.3770 hc         1 XAO       0.052200
     36 H8          -0.5560    -1.1940    -3.0240 hc         1 XAO       0.042700
     37 H2'1        -2.2410     0.3860    -3.9380 hc         1 XAO       0.039200
     38 H2'2        -1.0760     1.7050    -3.9040 hc         1 XAO       0.039200
     39 H6'1         1.3750     1.2070    -2.9070 hc         1 XAO       0.039200
     40 H6'2         1.7300    -0.4250    -2.3510 hc         1 XAO       0.039200
     41 H3'1        -0.8940    -0.8440    -5.6240 hc         1 XAO       0.038950
     42 H3'2        -1.2410     0.7810    -6.2040 hc         1 XAO       0.038950
     43 H5'1         1.5520    -1.3340    -4.6420 hc         1 XAO       0.038950
     44 H5'2         2.7110    -0.0090    -4.6130 hc         1 XAO       0.038950
     45 H4'1         1.1670     0.1510    -6.5990 hc         1 XAO       0.039200
     46 H4'2         1.0300     1.5630    -5.5550 hc         1 XAO       0.039200
@<TRIPOS>BOND
     1     1     2 1   
     2     1     3 1   
     3     1    11 1   
     4     1    18 1   
     5     2    19 1   
     6     2    20 1   
     7     3     4 1   
     8     3     5 1   
     9     3    21 1   
    10     4    22 1   
    11     5     6 1   
    12     5     7 1   
    13     5    23 1   
    14     6    24 1   
    15     7     8 1   
    16     7    25 1   
    17     7    26 1   
    18     8     9 1   
    19     8    10 1   
    20     8    27 1   
    21     9    28 1   
    22     9    29 1   
    23     9    30 1   
    24    10    31 1   
    25    10    32 1   
    26    10    33 1   
    27    11    12 1   
    28    11    34 1   
    29    11    35 1   
    30    12    13 1   
    31    12    14 1   
    32    12    36 1   
    33    13    15 1   
    34    13    37 1   
    35    13    38 1   
    36    14    16 1   
    37    14    39 1   
    38    14    40 1   
    39    15    17 1   
    40    15    41 1   
    41    15    42 1   
    42    16    17 1   
    43    16    43 1   
    44    16    44 1   
    45    17    45 1   
    46    17    46 1   
@<TRIPOS>SUBSTRUCTURE
     1 XAO         1 TEMP              0 ****  ****    0 ROOT
