@<TRIPOS>MOLECULE
XAP
   16    15     1     0     0
SMALL
abcg2


@<TRIPOS>ATOM
      1 N1          -0.3690    -2.6080     0.6820 n8         1 XAP      -0.994200
      2 C1          -0.9030    -1.8830    -0.4620 c3         1 XAP       0.150800
      3 C2          -1.0660    -0.4060    -0.1320 c3         1 XAP      -0.089400
      4 C3          -1.6390     0.3680    -1.3030 c3         1 XAP       0.168600
      5 O1          -1.7270     1.7260    -0.9280 os         1 XAP      -0.290300
      6 N2          -2.2670     2.4810    -1.9890 n8         1 XAP      -0.750700
      7 HN11         0.5780    -2.2960     0.8600 hn         1 XAP       0.392000
      8 HN12        -0.2900    -3.5900     0.4490 hn         1 XAP       0.392000
      9 H11         -1.8810    -2.3080    -0.7080 h1         1 XAP       0.027200
     10 H12         -0.2890    -1.9820    -1.3680 h1         1 XAP       0.027200
     11 H21         -1.7180    -0.3030     0.7400 hc         1 XAP       0.057200
     12 H22         -0.0920     0.0140     0.1400 hc         1 XAP       0.057200
     13 H31         -0.9960     0.2520    -2.1850 h1         1 XAP       0.030700
     14 H32         -2.6280    -0.0270    -1.5700 h1         1 XAP       0.030700
     15 HN21        -1.5800     3.2050    -2.1710 hn         1 XAP       0.394500
     16 HN22        -3.0670     2.9600    -1.5880 hn         1 XAP       0.394500
@<TRIPOS>BOND
     1     1     2 1   
     2     1     7 1   
     3     1     8 1   
     4     2     3 1   
     5     2     9 1   
     6     2    10 1   
     7     3     4 1   
     8     3    11 1   
     9     3    12 1   
    10     4     5 1   
    11     4    13 1   
    12     4    14 1   
    13     5     6 1   
    14     6    15 1   
    15     6    16 1   
@<TRIPOS>SUBSTRUCTURE
     1 XAP         1 TEMP              0 ****  ****    0 ROOT
