@<TRIPOS>MOLECULE
XAP
   16    15     1     0     0
SMALL
No Charge or Current Charge


@<TRIPOS>ATOM
      1 N1          -0.3630    -2.6580     0.7060 n8         1 XAP      -0.994200
      2 C1          -0.9160    -1.9200    -0.4450 c3         1 XAP       0.150800
      3 C2          -1.0620    -0.4180    -0.1360 c3         1 XAP      -0.089400
      4 C3          -1.6470     0.3710    -1.3230 c3         1 XAP       0.168600
      5 O1          -1.7400     1.7580    -0.9300 os         1 XAP      -0.290300
      6 N2          -2.2910     2.5630    -2.0200 n8         1 XAP      -0.750700
      7 HN11         0.5940    -2.3290     0.8850 hn         1 XAP       0.392000
      8 HN12        -0.2320    -3.6420     0.4400 hn         1 XAP       0.392000
      9 H11         -1.9000    -2.3430    -0.6930 h1         1 XAP       0.027200
     10 H12         -0.2500    -2.0590    -1.3080 h1         1 XAP       0.027200
     11 H21         -1.7140    -0.2880     0.7360 hc         1 XAP       0.057200
     12 H22         -0.0810    -0.0010     0.1210 hc         1 XAP       0.057200
     13 H31         -0.9920     0.2560    -2.1970 h1         1 XAP       0.030700
     14 H32         -2.6380    -0.0300    -1.5750 h1         1 XAP       0.030700
     15 HN21        -1.5940     3.3040    -2.1830 hn         1 XAP       0.394500
     16 HN22        -3.1080     3.0400    -1.6120 hn         1 XAP       0.394500
@<TRIPOS>BOND
     1     1     2 1   
     2     1     7 1   
     3     1     8 1   
     4     2     3 1   
     5     2     9 1   
     6     2    10 1   
     7     3     4 1   
     8     3    11 1   
     9     3    12 1   
    10     4     5 1   
    11     4    13 1   
    12     4    14 1   
    13     5     6 1   
    14     6    15 1   
    15     6    16 1   
@<TRIPOS>SUBSTRUCTURE
     1 XAP         1 TEMP              0 ****  ****    0 ROOT
