@<TRIPOS>MOLECULE
XAQ
   60    63     1     0     0
SMALL
abcg2


@<TRIPOS>ATOM
      1 C12        -21.0480   -12.3200     8.7330 ca         1 XAQ       0.099200
      2 C13        -19.9620   -11.6320     8.1860 ca         1 XAQ      -0.082000
      3 C14        -19.4170   -12.0190     6.9740 ca         1 XAQ      -0.053000
      4 C15        -19.9190   -13.1000     6.2550 ca         1 XAQ      -0.211300
      5 C16        -19.3630   -13.4890     4.9120 c3         1 XAQ       0.284100
      6 C21        -16.1210   -14.1070     4.0500 c6         1 XAQ      -0.284700
      7 C22        -16.3040   -14.8780     2.7510 c6         1 XAQ      -0.091400
      8 C11        -21.6300   -11.9620    10.0290 cc         1 XAQ      -0.155400
      9 C01        -23.1510   -12.4960    15.8950 c3         1 XAQ      -0.083100
     10 C03        -24.8390   -11.6480    14.2410 c3         1 XAQ      -0.083100
     11 C04        -22.7630   -12.7530    13.3980 ca         1 XAQ      -0.089300
     12 C05        -22.4100   -12.1700    12.1720 ca         1 XAQ      -0.064200
     13 C07        -22.0230   -10.7250    10.5000 cd         1 XAQ      -0.057300
     14 C08        -22.1150    -9.3510     9.8730 c          1 XAQ       0.725200
     15 C23        -15.4350   -14.2440     1.6620 c6         1 XAQ       0.156300
     16 C25        -13.8520   -13.4320     3.2720 c6         1 XAQ       0.156300
     17 C26        -14.6460   -14.0250     4.4390 c6         1 XAQ      -0.091400
     18 C27        -20.9880   -13.7710     6.8230 ca         1 XAQ       0.165000
     19 C29        -21.5560   -13.4120     8.0280 ca         1 XAQ      -0.165000
     20 C30        -21.8780   -12.9000    11.0880 ca         1 XAQ      -0.079800
     21 C31        -21.6790   -14.2790    11.2340 ca         1 XAQ      -0.074000
     22 C32        -22.0300   -14.8710    12.4290 ca         1 XAQ      -0.157000
     23 C33        -22.5650   -14.1190    13.4900 ca         1 XAQ      -0.117000
     24 F28        -21.5150   -14.8200     6.1600 f          1 XAQ      -0.208000
     25 N06        -22.4800   -10.8700    11.7780 na         1 XAQ      -0.194700
     26 N17        -18.6170   -14.7390     4.8560 n7         1 XAQ      -0.906300
     27 N24        -14.0320   -14.1330     2.0150 n7         1 XAQ      -0.849400
     28 O09        -22.4970    -8.4540    10.6510 o          1 XAQ      -0.702000
     29 O10        -21.8290    -9.2500     8.6700 o          1 XAQ      -0.702000
     30 O19        -16.7650   -16.2630     5.4920 o          1 XAQ      -0.540500
     31 O20        -16.8470   -14.0130     6.5850 o          1 XAQ      -0.540500
     32 S18        -17.0640   -14.8370     5.4010 s6         1 XAQ       1.180100
     33 H131       -19.5410   -10.7930     8.7200 ha         1 XAQ       0.140000
     34 H141       -18.5770   -11.4670     6.5690 ha         1 XAQ       0.106000
     35 H161       -18.7270   -12.6830     4.5420 h1         1 XAQ       0.054200
     36 H162       -20.1660   -13.5850     4.1810 h1         1 XAQ       0.054200
     37 H211       -16.5190   -13.0910     3.9390 h1         1 XAQ       0.095700
     38 H221       -17.3500   -14.8710     2.4390 hc         1 XAQ       0.061450
     39 H222       -16.0070   -15.9200     2.8920 hc         1 XAQ       0.061450
     40 H013       -23.5010   -11.7910    16.6510 hc         1 XAQ       0.029867
     41 H011       -23.7120   -13.4210    16.0320 hc         1 XAQ       0.029867
     42 H012       -22.1000   -12.7070    16.0950 hc         1 XAQ       0.029867
     43 H021       -22.8390   -10.9410    14.4870 hc         1 XAQ       0.048700
     44 H033       -25.2530   -10.9780    14.9970 hc         1 XAQ       0.029867
     45 H032       -25.0060   -11.1890    13.2650 hc         1 XAQ       0.029867
     46 H031       -25.4070   -12.5800    14.2710 hc         1 XAQ       0.029867
     47 H232       -15.8130   -13.2400     1.4420 h1         1 XAQ       0.051200
     48 H231       -15.5250   -14.8230     0.7410 h1         1 XAQ       0.051200
     49 H252       -12.7910   -13.4190     3.5240 h1         1 XAQ       0.051200
     50 H251       -14.1550   -12.3890     3.1280 h1         1 XAQ       0.051200
     51 H262       -14.2640   -15.0250     4.6630 hc         1 XAQ       0.061450
     52 H261       -14.5080   -13.4080     5.3270 hc         1 XAQ       0.061450
     53 H291       -22.4060   -13.9670     8.4030 ha         1 XAQ       0.129000
     54 H311       -21.2570   -14.8720    10.4320 ha         1 XAQ       0.108000
     55 H321       -21.8870   -15.9360    12.5610 ha         1 XAQ       0.092000
     56 H331       -22.8190   -14.6360    14.4070 ha         1 XAQ       0.092000
     57 H061       -22.8390   -10.0890    12.3030 hn         1 XAQ       0.369000
     58 H171       -19.1450   -15.5830     5.0410 hn         1 XAQ       0.503000
     59 H241       -13.6330   -15.0620     2.0920 hn         1 XAQ       0.403000
     60 C02        -23.3530   -11.9090    14.5030 c3         1 XAQ      -0.008400
@<TRIPOS>BOND
     1     1     2 ar  
     2     1     8 1   
     3     1    19 ar  
     4     2     3 ar  
     5     2    33 1   
     6     3     4 ar  
     7     3    34 1   
     8     4     5 1   
     9     4    18 ar  
    10     5    26 1   
    11     5    35 1   
    12     5    36 1   
    13     6     7 1   
    14     6    17 1   
    15     6    32 1   
    16     6    37 1   
    17     7    15 1   
    18     7    38 1   
    19     7    39 1   
    20     8    13 2   
    21     8    20 1   
    22     9    40 1   
    23     9    41 1   
    24     9    42 1   
    25     9    60 1   
    26    10    44 1   
    27    10    45 1   
    28    10    46 1   
    29    10    60 1   
    30    11    12 ar  
    31    11    23 ar  
    32    11    60 1   
    33    12    20 ar  
    34    12    25 1   
    35    13    14 1   
    36    13    25 1   
    37    14    28 1   
    38    14    29 1   
    39    15    27 1   
    40    15    47 1   
    41    15    48 1   
    42    16    17 1   
    43    16    27 1   
    44    16    49 1   
    45    16    50 1   
    46    17    51 1   
    47    17    52 1   
    48    18    19 ar  
    49    18    24 1   
    50    19    53 1   
    51    20    21 ar  
    52    21    22 ar  
    53    21    54 1   
    54    22    23 ar  
    55    22    55 1   
    56    23    56 1   
    57    25    57 1   
    58    26    32 1   
    59    26    58 1   
    60    27    59 1   
    61    30    32 2   
    62    31    32 2   
    63    43    60 1   
@<TRIPOS>SUBSTRUCTURE
     1 XAQ         1 TEMP              0 ****  ****    0 ROOT
