@<TRIPOS>MOLECULE
XAQ
   60    63     1     0     0
SMALL
No Charge or Current Charge


@<TRIPOS>ATOM
      1 C12        -21.1740   -12.3490     8.3120 ca         1 XAQ       0.099200
      2 C13        -19.9970   -11.7710     7.8010 ca         1 XAQ      -0.082000
      3 C14        -19.5130   -12.1390     6.5340 ca         1 XAQ      -0.053000
      4 C15        -20.1950   -13.1050     5.7660 ca         1 XAQ      -0.211300
      5 C16        -19.6710   -13.4960     4.3920 c3         1 XAQ       0.284100
      6 C21        -16.5250   -14.2600     4.5950 c6         1 XAQ      -0.284700
      7 C22        -16.3250   -14.3460     3.0490 c6         1 XAQ      -0.091400
      8 C11        -21.6570   -12.0040     9.6450 cc         1 XAQ      -0.155400
      9 C01        -22.0350   -11.7780    15.4210 c3         1 XAQ      -0.083100
     10 C03        -24.3920   -12.4830    14.7280 c3         1 XAQ      -0.083100
     11 C04        -22.4600   -12.7010    13.0890 ca         1 XAQ      -0.089300
     12 C05        -22.2560   -12.1330    11.8120 ca         1 XAQ      -0.064200
     13 C07        -22.1670   -10.7530    10.0170 cd         1 XAQ      -0.057300
     14 C08        -22.3490    -9.5320     9.1560 c          1 XAQ       0.725200
     15 C23        -15.1790   -13.4140     2.5810 c6         1 XAQ       0.156300
     16 C25        -14.0590   -13.5770     4.7740 c6         1 XAQ       0.156300
     17 C26        -15.1670   -14.5150     5.3150 c6         1 XAQ      -0.091400
     18 C27        -21.3690   -13.6860     6.2870 ca         1 XAQ       0.165000
     19 C29        -21.8500   -13.3180     7.5510 ca         1 XAQ      -0.165000
     20 C30        -21.7360   -12.8670    10.7820 ca         1 XAQ      -0.079800
     21 C31        -21.3710   -14.2110    10.9240 ca         1 XAQ      -0.074000
     22 C32        -21.5600   -14.8100    12.1850 ca         1 XAQ      -0.157000
     23 C33        -22.1000   -14.0620    13.2560 ca         1 XAQ      -0.117000
     24 F28        -22.0410   -14.6180     5.5740 f          1 XAQ      -0.208000
     25 N06        -22.5240   -10.8350    11.3910 na         1 XAQ      -0.194700
     26 N17        -19.1890   -14.8830     4.3480 n7         1 XAQ      -0.906300
     27 N24        -13.9170   -13.7100     3.3020 n7         1 XAQ      -0.849400
     28 O09        -22.8080    -8.5320     9.6940 o          1 XAQ      -0.702000
     29 O10        -22.0630    -9.5590     7.9680 o          1 XAQ      -0.702000
     30 O19        -17.5720   -16.7290     4.7750 o          1 XAQ      -0.540500
     31 O20        -18.1290   -15.0860     6.6300 o          1 XAQ      -0.540500
     32 S18        -17.8520   -15.3630     5.2200 s6         1 XAQ       1.180100
     33 H131       -19.4600   -11.0340     8.3920 ha         1 XAQ       0.140000
     34 H141       -18.6040   -11.6780     6.1550 ha         1 XAQ       0.106000
     35 H161       -18.8870   -12.7950     4.0760 h1         1 XAQ       0.054200
     36 H162       -20.4940   -13.3750     3.6740 h1         1 XAQ       0.054200
     37 H211       -16.8660   -13.2520     4.8570 h1         1 XAQ       0.095700
     38 H221       -17.2490   -14.0710     2.5230 hc         1 XAQ       0.061450
     39 H222       -16.0960   -15.3790     2.7530 hc         1 XAQ       0.061450
     40 H013       -22.4350   -11.1360    16.2150 hc         1 XAQ       0.029867
     41 H011       -21.8140   -12.7610    15.8550 hc         1 XAQ       0.029867
     42 H012       -21.0940   -11.3390    15.0700 hc         1 XAQ       0.029867
     43 H021       -23.2530   -10.8710    13.9270 hc         1 XAQ       0.048700
     44 H033       -24.8360   -11.8550    15.5100 hc         1 XAQ       0.029867
     45 H032       -25.1000   -12.5370    13.8920 hc         1 XAQ       0.029867
     46 H031       -24.2640   -13.4940    15.1350 hc         1 XAQ       0.029867
     47 H232       -15.4660   -12.3650     2.7560 h1         1 XAQ       0.051200
     48 H231       -15.0240   -13.5360     1.4980 h1         1 XAQ       0.051200
     49 H252       -13.1020   -13.8160     5.2620 h1         1 XAQ       0.051200
     50 H251       -14.3060   -12.5340     5.0270 h1         1 XAQ       0.051200
     51 H262       -14.8570   -15.5610     5.1800 hc         1 XAQ       0.061450
     52 H261       -15.2760   -14.3610     6.3980 hc         1 XAQ       0.061450
     53 H291       -22.7500   -13.7830     7.9430 ha         1 XAQ       0.129000
     54 H311       -20.9540   -14.7730    10.0920 ha         1 XAQ       0.108000
     55 H321       -21.2890   -15.8520    12.3340 ha         1 XAQ       0.092000
     56 H331       -22.2370   -14.5460    14.2200 ha         1 XAQ       0.092000
     57 H061       -22.9250   -10.0830    11.9410 hn         1 XAQ       0.369000
     58 H171       -19.9020   -15.4700     4.7740 hn         1 XAQ       0.503000
     59 H241       -13.6550   -14.6810     3.0960 hn         1 XAQ       0.403000
     60 C02        -23.0440   -11.8950    14.2560 c3         1 XAQ      -0.008400
@<TRIPOS>BOND
     1     1     2 ar  
     2     1     8 1   
     3     1    19 ar  
     4     2     3 ar  
     5     2    33 1   
     6     3     4 ar  
     7     3    34 1   
     8     4     5 1   
     9     4    18 ar  
    10     5    26 1   
    11     5    35 1   
    12     5    36 1   
    13     6     7 1   
    14     6    17 1   
    15     6    32 1   
    16     6    37 1   
    17     7    15 1   
    18     7    38 1   
    19     7    39 1   
    20     8    13 2   
    21     8    20 1   
    22     9    40 1   
    23     9    41 1   
    24     9    42 1   
    25     9    60 1   
    26    10    44 1   
    27    10    45 1   
    28    10    46 1   
    29    10    60 1   
    30    11    12 ar  
    31    11    23 ar  
    32    11    60 1   
    33    12    20 ar  
    34    12    25 1   
    35    13    14 1   
    36    13    25 1   
    37    14    28 1   
    38    14    29 1   
    39    15    27 1   
    40    15    47 1   
    41    15    48 1   
    42    16    17 1   
    43    16    27 1   
    44    16    49 1   
    45    16    50 1   
    46    17    51 1   
    47    17    52 1   
    48    18    19 ar  
    49    18    24 1   
    50    19    53 1   
    51    20    21 ar  
    52    21    22 ar  
    53    21    54 1   
    54    22    23 ar  
    55    22    55 1   
    56    23    56 1   
    57    25    57 1   
    58    26    32 1   
    59    26    58 1   
    60    27    59 1   
    61    30    32 2   
    62    31    32 2   
    63    43    60 1   
@<TRIPOS>SUBSTRUCTURE
     1 XAQ         1 TEMP              0 ****  ****    0 ROOT
