@<TRIPOS>MOLECULE
XAT
  100   103     1     0     0
SMALL
No Charge or Current Charge


@<TRIPOS>ATOM
      1 C1         -12.3500    -1.3970     0.1930 c6         1 XAT      -0.019000
      2 C2         -13.9110    -1.3620     0.2310 c6         1 XAT      -0.070400
      3 C3         -14.4710    -0.2720     1.1760 c6         1 XAT       0.174300
      4 C4         -14.1380     1.1300     0.6190 c6         1 XAT      -0.103400
      5 C5         -12.6480     1.3360     0.2880 cx         1 XAT       0.120000
      6 C6         -11.7840     0.1020     0.0070 cx         1 XAT       0.148200
      7 C7         -10.5950     0.2260    -0.8840 c2         1 XAT      -0.209200
      8 C8          -9.3410    -0.0450    -0.4580 ce         1 XAT      -0.160000
      9 C9          -8.1050     0.0400    -1.2620 ce         1 XAT      -0.071200
     10 C10         -6.8870    -0.0070    -0.6440 cf         1 XAT      -0.171000
     11 C11         -5.5700     0.0610    -1.2740 cf         1 XAT      -0.174000
     12 C12         -4.3940    -0.0520    -0.5920 ce         1 XAT      -0.171000
     13 C13         -3.0280     0.0210    -1.1490 ce         1 XAT      -0.063200
     14 C14         -1.9570     0.1410    -0.3080 cf         1 XAT      -0.175000
     15 C15         -0.5450     0.2260    -0.6750 cf         1 XAT      -0.171000
     16 C16        -11.9370    -2.3860    -0.9780 c3         1 XAT      -0.083100
     17 C17        -11.8170    -2.1020     1.5150 c3         1 XAT      -0.083100
     18 C18        -12.3350     2.7310    -0.3030 c3         1 XAT      -0.079100
     19 C19         -8.2630     0.1050    -2.7790 c3         1 XAT      -0.055900
     20 C20         -2.8810    -0.1140    -2.6630 c3         1 XAT      -0.055900
     21 O3         -15.8900    -0.4170     1.2910 oh         1 XAT      -0.661000
     22 O4         -11.6930     0.8490     1.2500 op         1 XAT      -0.441000
     23 C21         12.2990    -1.4160    -0.1820 c6         1 XAT      -0.019000
     24 C22         13.8580    -1.4880    -0.1260 c6         1 XAT      -0.070400
     25 C23         14.5470    -0.3420    -0.9040 c6         1 XAT       0.174300
     26 C24         14.2700     1.0090    -0.2060 c6         1 XAT      -0.103400
     27 C25         12.7770     1.2820     0.0600 cx         1 XAT       0.120000
     28 C26         11.8190     0.0890     0.1460 cx         1 XAT       0.148200
     29 C27         10.5850     0.1950     0.9750 c2         1 XAT      -0.209200
     30 C28          9.3460     0.0640     0.4490 ce         1 XAT      -0.160000
     31 C29          8.0690     0.1460     1.1860 ce         1 XAT      -0.071200
     32 C30          6.8940     0.2560     0.4980 cf         1 XAT      -0.171000
     33 C31          5.5460     0.3470     1.0550 cf         1 XAT      -0.174000
     34 C32          4.4120     0.3870     0.2990 ce         1 XAT      -0.171000
     35 C33          3.0250     0.4770     0.7900 ce         1 XAT      -0.063200
     36 C34          1.8950     0.3710    -0.1470 ce         1 XAT      -0.175000
     37 C35          0.4750     0.2850     0.2220 ce         1 XAT      -0.171000
     38 C37         11.8090    -1.9280    -1.6050 c3         1 XAT      -0.083100
     39 C38         12.5170     2.6200     0.7910 c3         1 XAT      -0.079100
     40 C39          8.1320     0.0280     2.7070 c3         1 XAT      -0.055900
     41 C40          2.7620     0.8980     2.2320 c3         1 XAT      -0.055900
     42 O23         15.9590    -0.5730    -0.9540 oh         1 XAT      -0.661000
     43 O24         11.8570     0.9750    -1.0060 op         1 XAT      -0.441000
     44 H21        -14.3030    -1.1870    -0.7810 hc         1 XAT       0.055950
     45 H22        -14.2980    -2.3450     0.5340 hc         1 XAT       0.055950
     46 H3         -14.0090    -0.3820     2.1680 h1         1 XAT       0.048700
     47 H41        -14.7180     1.3030    -0.2990 hc         1 XAT       0.056200
     48 H42        -14.4560     1.9010     1.3340 hc         1 XAT       0.056200
     49 H7         -10.8090     0.5460    -1.9030 ha         1 XAT       0.181000
     50 H8          -9.2140    -0.3360     0.5860 ha         1 XAT       0.187000
     51 H10         -6.8830    -0.0890     0.4450 ha         1 XAT       0.172000
     52 H11         -5.5380     0.2390    -2.3490 ha         1 XAT       0.173500
     53 H12         -4.4560    -0.1950     0.4880 ha         1 XAT       0.171000
     54 H14         -2.1660     0.1960     0.7620 ha         1 XAT       0.169000
     55 H15         -0.2910     0.2570    -1.7360 ha         1 XAT       0.172000
     56 H161       -12.2470    -1.9950    -1.9550 hc         1 XAT       0.038867
     57 H162       -10.8520    -2.5400    -1.0150 hc         1 XAT       0.038867
     58 H163       -12.4020    -3.3730    -0.8570 hc         1 XAT       0.038867
     59 H171       -12.2270    -3.1130     1.6290 hc         1 XAT       0.038867
     60 H172       -10.7250    -2.1910     1.5000 hc         1 XAT       0.038867
     61 H173       -12.0820    -1.5390     2.4170 hc         1 XAT       0.038867
     62 H181       -12.8760     3.5200     0.2340 hc         1 XAT       0.049033
     63 H182       -11.2650     2.9590    -0.2430 hc         1 XAT       0.049033
     64 H183       -12.6310     2.7760    -1.3570 hc         1 XAT       0.049033
     65 H191        -8.3300     1.1430    -3.1250 hc         1 XAT       0.041700
     66 H192        -7.4280    -0.3700    -3.3050 hc         1 XAT       0.041700
     67 H193        -9.1600    -0.4230    -3.1220 hc         1 XAT       0.041700
     68 H201        -2.9400     0.8640    -3.1540 hc         1 XAT       0.042867
     69 H202        -1.9300    -0.5760    -2.9500 hc         1 XAT       0.042867
     70 H203        -3.6580    -0.7550    -3.0950 hc         1 XAT       0.042867
     71 HO3        -16.1890     0.2430     1.9550 ho         1 XAT       0.442500
     72 H221        14.1940    -1.4570     0.9200 hc         1 XAT       0.055950
     73 H222        14.2000    -2.4560    -0.5190 hc         1 XAT       0.055950
     74 H23         14.1440    -0.3060    -1.9270 h1         1 XAT       0.048700
     75 H241        14.7980     1.0350     0.7570 hc         1 XAT       0.056200
     76 H242        14.6820     1.8300    -0.8070 hc         1 XAT       0.056200
     77 H27         10.7520     0.3840     2.0350 ha         1 XAT       0.181000
     78 H28          9.2700    -0.0980    -0.6270 ha         1 XAT       0.187000
     79 H30          6.9550     0.2990    -0.5920 ha         1 XAT       0.172000
     80 H31          5.4500     0.3840     2.1400 ha         1 XAT       0.173500
     81 H32          4.5240     0.3290    -0.7850 ha         1 XAT       0.171000
     82 H34          2.1370     0.2900    -1.2080 ha         1 XAT       0.169000
     83 H35          0.2310     0.2560     1.2850 ha         1 XAT       0.172000
     84 H361        12.0190    -2.2440     1.8720 hc         1 XAT       0.038867
     85 H362        10.6550    -2.5790     0.7970 hc         1 XAT       0.038867
     86 H363        12.1550    -3.4960     0.6320 hc         1 XAT       0.038867
     87 H371        12.1600    -2.9470    -1.8130 hc         1 XAT       0.038867
     88 H372        10.7140    -1.9410    -1.6640 hc         1 XAT       0.038867
     89 H373        12.1670    -1.2880    -2.4190 hc         1 XAT       0.038867
     90 H381        13.1400     3.4240     0.3820 hc         1 XAT       0.049033
     91 H382        11.4690     2.9290     0.6970 hc         1 XAT       0.049033
     92 H383        12.7450     2.5250     1.8580 hc         1 XAT       0.049033
     93 H391         8.2410     1.0130     3.1750 hc         1 XAT       0.041700
     94 H392         7.2370    -0.4440     3.1250 hc         1 XAT       0.041700
     95 H393         8.9710    -0.5960     3.0370 hc         1 XAT       0.041700
     96 H401         3.5630     1.5310     2.6280 hc         1 XAT       0.042867
     97 H402         1.8420     1.4870     2.3250 hc         1 XAT       0.042867
     98 H403         2.6690     0.0240     2.8870 hc         1 XAT       0.042867
     99 H1          16.3420     0.1340    -1.5170 ho         1 XAT       0.442500
    100 C36         11.7480    -2.4990     0.8400 c3         1 XAT      -0.083100
@<TRIPOS>BOND
     1     1     2 1   
     2     1     6 1   
     3     1    16 1   
     4     1    17 1   
     5     2     3 1   
     6     2    44 1   
     7     2    45 1   
     8     3     4 1   
     9     3    21 1   
    10     3    46 1   
    11     4     5 1   
    12     4    47 1   
    13     4    48 1   
    14     5     6 1   
    15     5    18 1   
    16     5    22 1   
    17     6     7 1   
    18     6    22 1   
    19     7     8 2   
    20     7    49 1   
    21     8     9 1   
    22     8    50 1   
    23     9    10 2   
    24     9    19 1   
    25    10    11 1   
    26    10    51 1   
    27    11    12 2   
    28    11    52 1   
    29    12    13 1   
    30    12    53 1   
    31    13    14 2   
    32    13    20 1   
    33    14    15 1   
    34    14    54 1   
    35    15    37 2   
    36    15    55 1   
    37    16    56 1   
    38    16    57 1   
    39    16    58 1   
    40    17    59 1   
    41    17    60 1   
    42    17    61 1   
    43    18    62 1   
    44    18    63 1   
    45    18    64 1   
    46    19    65 1   
    47    19    66 1   
    48    19    67 1   
    49    20    68 1   
    50    20    69 1   
    51    20    70 1   
    52    21    71 1   
    53    23    24 1   
    54    23    28 1   
    55    23    38 1   
    56    23   100 1   
    57    24    25 1   
    58    24    72 1   
    59    24    73 1   
    60    25    26 1   
    61    25    42 1   
    62    25    74 1   
    63    26    27 1   
    64    26    75 1   
    65    26    76 1   
    66    27    28 1   
    67    27    39 1   
    68    27    43 1   
    69    28    29 1   
    70    28    43 1   
    71    29    30 2   
    72    29    77 1   
    73    30    31 1   
    74    30    78 1   
    75    31    32 2   
    76    31    40 1   
    77    32    33 1   
    78    32    79 1   
    79    33    34 2   
    80    33    80 1   
    81    34    35 1   
    82    34    81 1   
    83    35    36 2   
    84    35    41 1   
    85    36    37 1   
    86    36    82 1   
    87    37    83 1   
    88    38    87 1   
    89    38    88 1   
    90    38    89 1   
    91    39    90 1   
    92    39    91 1   
    93    39    92 1   
    94    40    93 1   
    95    40    94 1   
    96    40    95 1   
    97    41    96 1   
    98    41    97 1   
    99    41    98 1   
   100    42    99 1   
   101    84   100 1   
   102    85   100 1   
   103    86   100 1   
@<TRIPOS>SUBSTRUCTURE
     1 XAT         1 TEMP              0 ****  ****    0 ROOT
