@<TRIPOS>MOLECULE
XAT
  100   103     1     0     0
SMALL
bcc


@<TRIPOS>ATOM
      1 C1         -12.3240    -1.4500    -0.1430 c6         1 XAT      -0.019000
      2 C2         -13.8350    -1.2930     0.0930 c6         1 XAT      -0.070400
      3 C3         -14.1980    -0.3030     1.1810 c6         1 XAT       0.151100
      4 C4         -13.7400     1.0840     0.7540 c6         1 XAT      -0.103400
      5 C5         -12.2770     1.1330     0.3890 cx         1 XAT       0.096800
      6 C6         -11.5810    -0.1000    -0.0440 cx         1 XAT       0.125000
      7 C7         -10.3640     0.0050    -0.8880 c2         1 XAT      -0.159200
      8 C8          -9.1210     0.1040    -0.4050 ce         1 XAT      -0.110000
      9 C9          -7.9130     0.1630    -1.2140 ce         1 XAT      -0.071200
     10 C10         -6.7190     0.2360    -0.5790 cf         1 XAT      -0.121000
     11 C11         -5.4160     0.2830    -1.1850 cf         1 XAT      -0.124000
     12 C12         -4.2740     0.3250    -0.4640 ce         1 XAT      -0.121000
     13 C13         -2.9370     0.3570    -1.0140 ce         1 XAT      -0.063200
     14 C14         -1.8890     0.3720    -0.1490 cf         1 XAT      -0.125000
     15 C15         -0.4940     0.3800    -0.4760 cf         1 XAT      -0.121000
     16 C16        -12.1480    -2.0710    -1.5330 c3         1 XAT      -0.083100
     17 C17        -11.7130    -2.4030     0.8890 c3         1 XAT      -0.083100
     18 C18        -11.7950     2.4980    -0.0200 c3         1 XAT      -0.079100
     19 C19         -8.0660     0.1220    -2.7040 c3         1 XAT      -0.055900
     20 C20         -2.7840     0.3640    -2.5060 c3         1 XAT      -0.055900
     21 O3         -15.6010    -0.3520     1.3590 oh         1 XAT      -0.598800
     22 O4         -11.4320     0.4060     1.2750 op         1 XAT      -0.394600
     23 C21         12.3130    -1.4640     0.1260 c6         1 XAT      -0.019000
     24 C22         13.8230    -1.3080    -0.1130 c6         1 XAT      -0.070400
     25 C23         14.1840    -0.3170    -1.2000 c6         1 XAT       0.151100
     26 C24         13.7270     1.0700    -0.7730 c6         1 XAT      -0.103400
     27 C25         12.2640     1.1180    -0.4070 cx         1 XAT       0.096800
     28 C26         11.5690    -0.1150     0.0270 cx         1 XAT       0.125000
     29 C27         10.3530    -0.0100     0.8720 c2         1 XAT      -0.159200
     30 C28          9.1090     0.0870     0.3900 ce         1 XAT      -0.110000
     31 C29          7.9020     0.1480     1.2000 ce         1 XAT      -0.071200
     32 C30          6.7070     0.2210     0.5650 cf         1 XAT      -0.121000
     33 C31          5.4050     0.2730     1.1710 cf         1 XAT      -0.124000
     34 C32          4.2620     0.3160     0.4510 ce         1 XAT      -0.121000
     35 C33          2.9260     0.3550     1.0010 ce         1 XAT      -0.063200
     36 C34          1.8770     0.3690     0.1360 ce         1 XAT      -0.125000
     37 C35          0.4830     0.3840     0.4630 ce         1 XAT      -0.121000
     38 C37         11.7000    -2.4180    -0.9040 c3         1 XAT      -0.083100
     39 C38         11.7810     2.4840     0.0010 c3         1 XAT      -0.079100
     40 C39          8.0560     0.1100     2.6900 c3         1 XAT      -0.055900
     41 C40          2.7730     0.3700     2.4920 c3         1 XAT      -0.055900
     42 O23         15.5870    -0.3660    -1.3810 oh         1 XAT      -0.598800
     43 O24         11.4190     0.3910    -1.2920 op         1 XAT      -0.394600
     44 H21        -14.3110    -0.9600    -0.8370 hc         1 XAT       0.055950
     45 H22        -14.2520    -2.2780     0.3260 hc         1 XAT       0.055950
     46 H3         -13.6930    -0.5770     2.1160 h1         1 XAT       0.048700
     47 H41        -14.3280     1.4050    -0.1110 hc         1 XAT       0.056200
     48 H42        -13.9270     1.8150     1.5510 hc         1 XAT       0.056200
     49 H7         -10.5320    -0.0300    -1.9580 ha         1 XAT       0.131000
     50 H8          -8.9780     0.1390     0.6710 ha         1 XAT       0.137000
     51 H10         -6.7320     0.2520     0.5080 ha         1 XAT       0.122000
     52 H11         -5.3530     0.2800    -2.2670 ha         1 XAT       0.123500
     53 H12         -4.3490     0.3260     0.6210 ha         1 XAT       0.121000
     54 H14         -2.1210     0.3680     0.9130 ha         1 XAT       0.119000
     55 H15         -0.2000     0.3740    -1.5210 ha         1 XAT       0.122000
     56 H161       -12.4650    -1.3910    -2.3270 hc         1 XAT       0.038867
     57 H162       -11.1140    -2.3600    -1.7270 hc         1 XAT       0.038867
     58 H163       -12.7630    -2.9690    -1.6090 hc         1 XAT       0.038867
     59 H171       -12.1090    -3.4100     0.7480 hc         1 XAT       0.038867
     60 H172       -10.6280    -2.4580     0.7810 hc         1 XAT       0.038867
     61 H173       -11.9340    -2.1030     1.9140 hc         1 XAT       0.038867
     62 H181       -11.9510     3.2100     0.7930 hc         1 XAT       0.049033
     63 H182       -10.7390     2.5070    -0.2850 hc         1 XAT       0.049033
     64 H183       -12.3650     2.8520    -0.8800 hc         1 XAT       0.049033
     65 H191        -8.6870     0.9500    -3.0540 hc         1 XAT       0.041700
     66 H192        -7.1200     0.1780    -3.2340 hc         1 XAT       0.041700
     67 H193        -8.5640    -0.7990    -3.0170 hc         1 XAT       0.041700
     68 H201        -3.2970     1.2220    -2.9450 hc         1 XAT       0.042867
     69 H202        -1.7460     0.4070    -2.8250 hc         1 XAT       0.042867
     70 H203        -3.2270    -0.5300    -2.9500 hc         1 XAT       0.042867
     71 HO3        -15.8340     0.2610     2.0640 ho         1 XAT       0.403500
     72 H221        14.3010    -0.9740     0.8170 hc         1 XAT       0.055950
     73 H222        14.2400    -2.2920    -0.3460 hc         1 XAT       0.055950
     74 H23         13.6780    -0.5910    -2.1350 h1         1 XAT       0.048700
     75 H241        14.3160     1.3900     0.0930 hc         1 XAT       0.056200
     76 H242        13.9130     1.8010    -1.5690 hc         1 XAT       0.056200
     77 H27         10.5210    -0.0430     1.9420 ha         1 XAT       0.131000
     78 H28          8.9650     0.1200    -0.6860 ha         1 XAT       0.137000
     79 H30          6.7200     0.2350    -0.5220 ha         1 XAT       0.122000
     80 H31          5.3420     0.2730     2.2530 ha         1 XAT       0.123500
     81 H32          4.3370     0.3140    -0.6340 ha         1 XAT       0.121000
     82 H34          2.1100     0.3590    -0.9260 ha         1 XAT       0.119000
     83 H35          0.1890     0.3910     1.5080 ha         1 XAT       0.122000
     84 H361        12.4570    -1.4020     2.3090 hc         1 XAT       0.038867
     85 H362        11.1050    -2.3710     1.7140 hc         1 XAT       0.038867
     86 H363        12.7540    -2.9810     1.5930 hc         1 XAT       0.038867
     87 H371        12.0970    -3.4250    -0.7630 hc         1 XAT       0.038867
     88 H372        10.6150    -2.4740    -0.7940 hc         1 XAT       0.038867
     89 H373        11.9190    -2.1190    -1.9290 hc         1 XAT       0.038867
     90 H381        11.9370     3.1960    -0.8120 hc         1 XAT       0.049033
     91 H382        10.7260     2.4920     0.2660 hc         1 XAT       0.049033
     92 H383        12.3510     2.8380     0.8610 hc         1 XAT       0.049033
     93 H391         8.6740     0.9390     3.0390 hc         1 XAT       0.041700
     94 H392         7.1090     0.1630     3.2200 hc         1 XAT       0.041700
     95 H393         8.5560    -0.8090     3.0030 hc         1 XAT       0.041700
     96 H401         3.2940     1.2240     2.9280 hc         1 XAT       0.042867
     97 H402         1.7360     0.4240     2.8120 hc         1 XAT       0.042867
     98 H403         3.2070    -0.5270     2.9400 hc         1 XAT       0.042867
     99 H1          15.8190     0.2470    -2.0850 ho         1 XAT       0.403500
    100 C36         12.1390    -2.0830     1.5180 c3         1 XAT      -0.083100
@<TRIPOS>BOND
     1     1     2 1   
     2     1     6 1   
     3     1    16 1   
     4     1    17 1   
     5     2     3 1   
     6     2    44 1   
     7     2    45 1   
     8     3     4 1   
     9     3    21 1   
    10     3    46 1   
    11     4     5 1   
    12     4    47 1   
    13     4    48 1   
    14     5     6 1   
    15     5    18 1   
    16     5    22 1   
    17     6     7 1   
    18     6    22 1   
    19     7     8 2   
    20     7    49 1   
    21     8     9 1   
    22     8    50 1   
    23     9    10 2   
    24     9    19 1   
    25    10    11 1   
    26    10    51 1   
    27    11    12 2   
    28    11    52 1   
    29    12    13 1   
    30    12    53 1   
    31    13    14 2   
    32    13    20 1   
    33    14    15 1   
    34    14    54 1   
    35    15    37 2   
    36    15    55 1   
    37    16    56 1   
    38    16    57 1   
    39    16    58 1   
    40    17    59 1   
    41    17    60 1   
    42    17    61 1   
    43    18    62 1   
    44    18    63 1   
    45    18    64 1   
    46    19    65 1   
    47    19    66 1   
    48    19    67 1   
    49    20    68 1   
    50    20    69 1   
    51    20    70 1   
    52    21    71 1   
    53    23    24 1   
    54    23    28 1   
    55    23    38 1   
    56    23   100 1   
    57    24    25 1   
    58    24    72 1   
    59    24    73 1   
    60    25    26 1   
    61    25    42 1   
    62    25    74 1   
    63    26    27 1   
    64    26    75 1   
    65    26    76 1   
    66    27    28 1   
    67    27    39 1   
    68    27    43 1   
    69    28    29 1   
    70    28    43 1   
    71    29    30 2   
    72    29    77 1   
    73    30    31 1   
    74    30    78 1   
    75    31    32 2   
    76    31    40 1   
    77    32    33 1   
    78    32    79 1   
    79    33    34 2   
    80    33    80 1   
    81    34    35 1   
    82    34    81 1   
    83    35    36 2   
    84    35    41 1   
    85    36    37 1   
    86    36    82 1   
    87    37    83 1   
    88    38    87 1   
    89    38    88 1   
    90    38    89 1   
    91    39    90 1   
    92    39    91 1   
    93    39    92 1   
    94    40    93 1   
    95    40    94 1   
    96    40    95 1   
    97    41    96 1   
    98    41    97 1   
    99    41    98 1   
   100    42    99 1   
   101    84   100 1   
   102    85   100 1   
   103    86   100 1   
@<TRIPOS>SUBSTRUCTURE
     1 XAT         1 TEMP              0 ****  ****    0 ROOT
