@<TRIPOS>MOLECULE
XAV
   32    34     1     0     0
SMALL
abcg2


@<TRIPOS>ATOM
      1 N1           1.1380     1.5150     0.0130 nb         1 XAV      -0.281000
      2 C2           0.6260     0.2880    -0.0100 cp         1 XAV       0.236500
      3 N3           1.3330    -0.8220    -0.0620 nb         1 XAV      -0.211000
      4 C4           2.6670    -0.7230    -0.0780 ca         1 XAV       0.161300
      5 C5           3.3080     0.5040    -0.0260 ca         1 XAV      -0.200300
      6 C6           2.4490     1.6150    -0.0020 ca         1 XAV       0.362300
      7 O6           2.9890     2.8240     0.0080 oh         1 XAV      -0.636300
      8 FAB         -5.5950    -0.2460    -1.1810 f          1 XAV      -0.113000
      9 FAC         -5.7220     0.8250     0.6790 f          1 XAV      -0.113000
     10 FAD         -5.5320    -1.3190     0.6810 f          1 XAV      -0.113000
     11 CAE         -1.6550     1.3010     0.0650 ca         1 XAV      -0.073000
     12 CAF         -1.4520    -1.0900     0.0040 ca         1 XAV      -0.073000
     13 CAG         -3.0340     1.1850     0.0970 ca         1 XAV      -0.076500
     14 CAH         -2.8300    -1.2110     0.0370 ca         1 XAV      -0.076500
     15 CAI          4.8540    -1.9400    -0.5340 c6         1 XAV       0.055600
     16 CAJ          3.3930    -2.0360    -0.1440 c6         1 XAV      -0.134700
     17 CAK          4.7960     0.7080    -0.0260 c6         1 XAV       0.123900
     18 SAN          5.7190    -0.7480     0.5160 ss         1 XAV      -0.413000
     19 CAP         -0.8480     0.1660     0.0190 cp         1 XAV      -0.123500
     20 CAQ         -3.6260    -0.0720     0.0860 ca         1 XAV      -0.179300
     21 CAU         -5.1170    -0.2020     0.0730 c3         1 XAV       0.355300
     22 HO6          2.2870     3.4900     0.0400 ho         1 XAV       0.494000
     23 HAE         -1.2040     2.2840     0.0770 ha         1 XAV       0.141000
     24 HAF         -0.8380    -1.9780    -0.0320 ha         1 XAV       0.141000
     25 HAG         -3.6360     2.0840     0.1330 ha         1 XAV       0.132500
     26 HAH         -3.2700    -2.2000     0.0260 ha         1 XAV       0.132500
     27 HAI          5.3460    -2.9040    -0.4030 h1         1 XAV       0.076200
     28 HAIA         4.9720    -1.6480    -1.5790 h1         1 XAV       0.076200
     29 HAJ          3.3060    -2.5210     0.8330 hc         1 XAV       0.079200
     30 HAJA         2.8630    -2.6780    -0.8510 hc         1 XAV       0.079200
     31 HAK          5.1380     1.0080    -1.0200 h1         1 XAV       0.085700
     32 HAKA         5.0710     1.5110     0.6590 h1         1 XAV       0.085700
@<TRIPOS>BOND
     1     1     2 ar  
     2     1     6 ar  
     3     2     3 ar  
     4     2    19 1   
     5     3     4 ar  
     6     4     5 ar  
     7     4    16 1   
     8     5     6 ar  
     9     5    17 1   
    10     6     7 1   
    11     7    22 1   
    12     8    21 1   
    13     9    21 1   
    14    10    21 1   
    15    11    13 ar  
    16    11    19 ar  
    17    11    23 1   
    18    12    14 ar  
    19    12    19 ar  
    20    12    24 1   
    21    13    20 ar  
    22    13    25 1   
    23    14    20 ar  
    24    14    26 1   
    25    15    16 1   
    26    15    18 1   
    27    15    27 1   
    28    15    28 1   
    29    16    29 1   
    30    16    30 1   
    31    17    18 1   
    32    17    31 1   
    33    17    32 1   
    34    20    21 1   
@<TRIPOS>SUBSTRUCTURE
     1 XAV         1 TEMP              0 ****  ****    0 ROOT
