@<TRIPOS>MOLECULE
XAW
   54    58     1     0     0
SMALL
No Charge or Current Charge


@<TRIPOS>ATOM
      1 CAE        -15.6720   -19.7480    40.4620 c6         1 XAW      -0.112000
      2 CAF        -14.8420   -22.1210    39.8590 c6         1 XAW      -0.060700
      3 CAG        -13.8140   -20.1000    38.7100 c6         1 XAW      -0.060700
      4 CAH        -13.3190   -20.5660    41.1580 c6         1 XAW      -0.060700
      5 CAI        -16.0690   -21.2590    40.2730 c6         1 XAW      -0.060400
      6 CAJ        -15.0410   -19.2330    39.1180 c6         1 XAW      -0.060400
      7 CAK        -14.5480   -19.7040    41.5670 c6         1 XAW      -0.060400
      8 CAL        -14.2590   -21.5790    38.5240 c6         1 XAW      -0.069400
      9 CAM        -13.7590   -22.0430    40.9690 c6         1 XAW      -0.069400
     10 CAN        -12.7330   -20.0220    39.8240 c6         1 XAW      -0.069400
     11 CAO        -16.9290   -18.8890    40.8700 c          1 XAW       0.611100
     12 CAP        -18.0080   -17.0920    42.2850 c6         1 XAW       0.094500
     13 CAQ        -15.8040   -16.6140    41.3310 c6         1 XAW       0.094500
     14 CAR        -18.6440   -15.9380    41.4620 c6         1 XAW       0.160300
     15 CAS        -16.3980   -15.4400    40.5000 c6         1 XAW       0.160300
     16 CAT        -18.0640   -13.5710    40.7570 ca         1 XAW       0.198000
     17 CAU        -17.4040   -12.4020    41.2570 ca         1 XAW       0.282000
     18 CAV        -19.1590   -13.4110    39.8830 ca         1 XAW      -0.104000
     19 CAW        -17.8530   -11.1260    40.8760 ca         1 XAW      -0.163000
     20 CAY        -19.5950   -12.1300    39.5100 ca         1 XAW       0.096000
     21 CAZ        -18.9450   -10.9880    40.0040 ca         1 XAW      -0.073000
     22 NAC        -16.8160   -17.6770    41.6040 n          1 XAW      -0.419800
     23 NAD        -17.6400   -14.8860    41.1190 nh         1 XAW      -0.784400
     24 NAX        -16.3390   -12.4880    42.1330 nv         1 XAW      -1.066000
     25 OAB        -18.0520   -19.3210    40.6280 o          1 XAW      -0.614100
     26 ClAA       -20.9600   -11.9560    38.4160 cl         1 XAW      -0.219000
     27 H1         -15.1550   -23.1660    39.7260 hc         1 XAW       0.051367
     28 H2         -13.3960   -19.7230    37.7670 hc         1 XAW       0.051367
     29 H3         -12.5540   -20.5100    41.9450 hc         1 XAW       0.051367
     30 H4         -16.8480   -21.3570    39.5040 hc         1 XAW       0.047867
     31 H5         -16.5040   -21.6550    41.2020 hc         1 XAW       0.047867
     32 H6         -14.7330   -18.1850    39.1720 hc         1 XAW       0.047867
     33 H7         -15.7970   -19.2730    38.3200 hc         1 XAW       0.047867
     34 H8         -14.1970   -18.6890    41.7730 hc         1 XAW       0.047867
     35 H9         -14.9540   -20.0710    42.5210 hc         1 XAW       0.047867
     36 H10        -15.0090   -21.6520    37.7240 hc         1 XAW       0.041367
     37 H11        -13.4060   -22.1940    38.2050 hc         1 XAW       0.041367
     38 H12        -14.1520   -22.4460    41.9130 hc         1 XAW       0.041367
     39 H13        -12.8940   -22.6660    40.7020 hc         1 XAW       0.041367
     40 H14        -11.8470   -20.6040    39.5350 hc         1 XAW       0.041367
     41 H15        -12.3940   -18.9850    39.9530 hc         1 XAW       0.041367
     42 H16        -17.6970   -16.6990    43.2630 h1         1 XAW       0.062950
     43 H17        -18.7650   -17.8640    42.4840 h1         1 XAW       0.062950
     44 H18        -14.9230   -16.9940    40.8110 h1         1 XAW       0.062950
     45 H19        -15.4480   -16.2170    42.2920 h1         1 XAW       0.062950
     46 H20        -19.4680   -15.5020    42.0460 h1         1 XAW       0.050700
     47 H21        -19.0780   -16.3600    40.5430 h1         1 XAW       0.050700
     48 H22        -16.6210   -15.8040    39.4860 h1         1 XAW       0.050700
     49 H23        -15.6330   -14.6570    40.4030 h1         1 XAW       0.050700
     50 H24        -19.6700   -14.2810    39.4830 ha         1 XAW       0.130000
     51 H25        -17.3560   -10.2370    41.2560 ha         1 XAW       0.118000
     52 H26        -19.2890    -9.9990    39.7100 ha         1 XAW       0.130000
     53 H27        -16.0680   -11.6730    42.6780 hn         1 XAW       0.453000
     54 H28        -16.1510   -13.4040    42.5350 hn         1 XAW       0.453000
@<TRIPOS>BOND
     1     1     5 1   
     2     1     6 1   
     3     1     7 1   
     4     1    11 1   
     5     2     5 1   
     6     2     8 1   
     7     2     9 1   
     8     2    27 1   
     9     3     6 1   
    10     3     8 1   
    11     3    10 1   
    12     3    28 1   
    13     4     7 1   
    14     4     9 1   
    15     4    10 1   
    16     4    29 1   
    17     5    30 1   
    18     5    31 1   
    19     6    32 1   
    20     6    33 1   
    21     7    34 1   
    22     7    35 1   
    23     8    36 1   
    24     8    37 1   
    25     9    38 1   
    26     9    39 1   
    27    10    40 1   
    28    10    41 1   
    29    11    22 1   
    30    11    25 2   
    31    12    14 1   
    32    12    22 1   
    33    12    42 1   
    34    12    43 1   
    35    13    15 1   
    36    13    22 1   
    37    13    44 1   
    38    13    45 1   
    39    14    23 1   
    40    14    46 1   
    41    14    47 1   
    42    15    23 1   
    43    15    48 1   
    44    15    49 1   
    45    16    17 ar  
    46    16    18 ar  
    47    16    23 1   
    48    17    19 ar  
    49    17    24 1   
    50    18    20 ar  
    51    18    50 1   
    52    19    21 ar  
    53    19    51 1   
    54    20    21 ar  
    55    20    26 1   
    56    21    52 1   
    57    24    53 1   
    58    24    54 1   
@<TRIPOS>SUBSTRUCTURE
     1 XAW         1 TEMP              0 ****  ****    0 ROOT
