@<TRIPOS>MOLECULE
XAW
   54    58     1     0     0
SMALL
abcg2


@<TRIPOS>ATOM
      1 CAE        -15.7100   -19.7250    40.6900 c6         1 XAW      -0.112000
      2 CAF        -14.7990   -21.9240    39.7930 c6         1 XAW      -0.060700
      3 CAG        -14.1060   -19.7720    38.7330 c6         1 XAW      -0.060700
      4 CAH        -13.2880   -20.3720    41.0340 c6         1 XAW      -0.060700
      5 CAI        -16.0130   -21.2160    40.4090 c6         1 XAW      -0.060400
      6 CAJ        -15.3380   -19.0780    39.3310 c6         1 XAW      -0.060400
      7 CAK        -14.5080   -19.6890    41.6680 c6         1 XAW      -0.060400
      8 CAL        -14.4240   -21.2480    38.4680 c6         1 XAW      -0.069400
      9 CAM        -13.6100   -21.8450    40.7580 c6         1 XAW      -0.069400
     10 CAN        -12.9310   -19.6650    39.7180 c6         1 XAW      -0.069400
     11 CAO        -16.9730   -19.0810    41.2980 c          1 XAW       0.611100
     12 CAP        -18.2230   -17.1780    42.1820 c6         1 XAW       0.094500
     13 CAQ        -15.9290   -16.7690    41.5570 c6         1 XAW       0.094500
     14 CAR        -18.6700   -16.0050    41.3200 c6         1 XAW       0.160300
     15 CAS        -16.3760   -15.5820    40.7160 c6         1 XAW       0.160300
     16 CAT        -17.9480   -13.7390    40.7170 ca         1 XAW       0.198000
     17 CAU        -17.2080   -12.6140    41.1530 ca         1 XAW       0.282000
     18 CAV        -18.9860   -13.5650    39.8060 ca         1 XAW      -0.104000
     19 CAW        -17.5260   -11.3570    40.6350 ca         1 XAW      -0.163000
     20 CAY        -19.2860   -12.2980    39.3230 ca         1 XAW       0.096000
     21 CAZ        -18.5610   -11.1880    39.7220 ca         1 XAW      -0.073000
     22 NAC        -16.9920   -17.7640    41.6500 n          1 XAW      -0.419800
     23 NAD        -17.6110   -15.0040    41.2600 nh         1 XAW      -0.784400
     24 NAX        -16.1690   -12.7780    42.0580 nv         1 XAW      -1.066000
     25 OAB        -17.9850   -19.7710    41.4630 o          1 XAW      -0.614100
     26 CLAA       -20.6060   -12.1080    38.1750 cl         1 XAW      -0.219000
     27 H1         -15.0580   -22.9700    39.6120 hc         1 XAW       0.051367
     28 H2         -13.8440   -19.2750    37.7960 hc         1 XAW       0.051367
     29 H3         -12.4470   -20.3000    41.7290 hc         1 XAW       0.051367
     30 H4         -16.8680   -21.2910    39.7340 hc         1 XAW       0.047867
     31 H5         -16.2950   -21.7100    41.3400 hc         1 XAW       0.047867
     32 H6         -15.1330   -18.0140    39.4260 hc         1 XAW       0.047867
     33 H7         -16.1900   -19.1750    38.6510 hc         1 XAW       0.047867
     34 H8         -14.2380   -18.6730    41.9500 hc         1 XAW       0.047867
     35 H9         -14.7910   -20.2070    42.5900 hc         1 XAW       0.047867
     36 H10        -15.2520   -21.3280    37.7570 hc         1 XAW       0.041367
     37 H11        -13.5590   -21.7470    38.0200 hc         1 XAW       0.041367
     38 H12        -13.8520   -22.3560    41.6950 hc         1 XAW       0.041367
     39 H13        -12.7390   -22.3480    40.3270 hc         1 XAW       0.041367
     40 H14        -12.0370   -20.1190    39.2810 hc         1 XAW       0.041367
     41 H15        -12.7000   -18.6120    39.9100 hc         1 XAW       0.041367
     42 H16        -18.0330   -16.8310    43.2030 h1         1 XAW       0.062950
     43 H17        -18.9910   -17.9420    42.2050 h1         1 XAW       0.062950
     44 H18        -15.0310   -17.1860    41.1310 h1         1 XAW       0.062950
     45 H19        -15.6920   -16.4230    42.5690 h1         1 XAW       0.062950
     46 H20        -19.5610   -15.5520    41.7570 h1         1 XAW       0.050700
     47 H21        -18.9330   -16.3850    40.3210 h1         1 XAW       0.050700
     48 H22        -16.5330   -15.9090    39.6770 h1         1 XAW       0.050700
     49 H23        -15.5920   -14.8270    40.7200 h1         1 XAW       0.050700
     50 H24        -19.5590   -14.4160    39.4680 ha         1 XAW       0.130000
     51 H25        -16.9660   -10.4930    40.9730 ha         1 XAW       0.118000
     52 H26        -18.8020   -10.2040    39.3440 ha         1 XAW       0.130000
     53 H27        -15.9300   -11.9480    42.5820 hn         1 XAW       0.453000
     54 H28        -16.2730   -13.5920    42.6500 hn         1 XAW       0.453000
@<TRIPOS>BOND
     1     1     5 1   
     2     1     6 1   
     3     1     7 1   
     4     1    11 1   
     5     2     5 1   
     6     2     8 1   
     7     2     9 1   
     8     2    27 1   
     9     3     6 1   
    10     3     8 1   
    11     3    10 1   
    12     3    28 1   
    13     4     7 1   
    14     4     9 1   
    15     4    10 1   
    16     4    29 1   
    17     5    30 1   
    18     5    31 1   
    19     6    32 1   
    20     6    33 1   
    21     7    34 1   
    22     7    35 1   
    23     8    36 1   
    24     8    37 1   
    25     9    38 1   
    26     9    39 1   
    27    10    40 1   
    28    10    41 1   
    29    11    22 1   
    30    11    25 2   
    31    12    14 1   
    32    12    22 1   
    33    12    42 1   
    34    12    43 1   
    35    13    15 1   
    36    13    22 1   
    37    13    44 1   
    38    13    45 1   
    39    14    23 1   
    40    14    46 1   
    41    14    47 1   
    42    15    23 1   
    43    15    48 1   
    44    15    49 1   
    45    16    17 ar  
    46    16    18 ar  
    47    16    23 1   
    48    17    19 ar  
    49    17    24 1   
    50    18    20 ar  
    51    18    50 1   
    52    19    21 ar  
    53    19    51 1   
    54    20    21 ar  
    55    20    26 1   
    56    21    52 1   
    57    24    53 1   
    58    24    54 1   
@<TRIPOS>SUBSTRUCTURE
     1 XAW         1 TEMP              0 ****  ****    0 ROOT
