@<TRIPOS>MOLECULE
XAY
   52    54     1     0     0
SMALL
No Charge or Current Charge


@<TRIPOS>ATOM
      1 O4          23.9870    35.4190    16.1600 o          1 XAY      -0.703000
      2 C25         22.8550    35.1590    16.5410 c          1 XAY       0.725600
      3 O3          22.0000    34.6790    15.8090 o          1 XAY      -0.703000
      4 C24         22.4970    35.4670    17.9860 ca         1 XAY      -0.201600
      5 C23         23.1520    36.5440    18.6290 ca         1 XAY      -0.062000
      6 C22         22.8620    36.8730    19.9610 ca         1 XAY      -0.172000
      7 C21         21.9120    36.1320    20.6740 ca         1 XAY      -0.104000
      8 C20         21.2550    35.0580    20.0560 ca         1 XAY      -0.172000
      9 C19         21.5410    34.7050    18.7180 ca         1 XAY      -0.003000
     10 N3          20.8870    33.6180    18.0730 ns         1 XAY      -0.173000
     11 C18         20.1170    32.5620    18.5410 c          1 XAY       0.613100
     12 O2          19.8910    32.3600    19.7290 o          1 XAY      -0.618100
     13 C17         18.0980    31.6540    17.4450 c1         1 XAY       0.345900
     14 N2          16.9330    31.6680    17.4170 n1         1 XAY      -0.503000
     15 C13         19.7260    29.3290    18.6210 ca         1 XAY      -0.059300
     16 C14         18.5580    28.5490    18.5080 ca         1 XAY      -0.143000
     17 C12         20.4870    29.2590    19.8030 ca         1 XAY      -0.098000
     18 C11         20.0730    28.4330    20.8600 ca         1 XAY      -0.092000
     19 C10         18.9020    27.6660    20.7450 ca         1 XAY      -0.115000
     20 C9          18.1340    27.7150    19.5600 ca         1 XAY      -0.041000
     21 N1          16.9370    26.9710    19.3620 ns         1 XAY      -0.144000
     22 C8          16.2830    26.0140    20.1320 c          1 XAY       0.615700
     23 O1          16.7050    25.6170    21.2130 o          1 XAY      -0.586100
     24 C5          14.9900    25.4690    19.5480 ca         1 XAY      -0.153600
     25 C4          14.4770    25.9100    18.3020 ca         1 XAY      -0.067000
     26 C3          13.2760    25.3810    17.7950 ca         1 XAY      -0.124000
     27 C2          12.5620    24.4080    18.5150 ca         1 XAY      -0.059300
     28 C1          11.2660    23.8380    17.9610 c3         1 XAY      -0.048800
     29 C7          13.0640    23.9640    19.7500 ca         1 XAY      -0.124000
     30 C6          14.2630    24.4880    20.2620 ca         1 XAY      -0.067000
     31 C15         20.1780    30.2170    17.4610 c3         1 XAY      -0.022100
     32 C16         19.5620    31.6490    17.4360 c3         1 XAY      -0.093600
     33 H18         23.8880    37.1380    18.0890 ha         1 XAY       0.127000
     34 H17         23.3720    37.7060    20.4390 ha         1 XAY       0.091000
     35 H16         21.6810    36.3920    21.7050 ha         1 XAY       0.088000
     36 H15         20.5140    34.5160    20.6350 ha         1 XAY       0.130000
     37 H14         21.0080    33.6320    17.0660 hn         1 XAY       0.237000
     38 H12         17.9750    28.5910    17.5910 ha         1 XAY       0.107000
     39 H11         21.3960    29.8480    19.9060 ha         1 XAY       0.138000
     40 H10         20.6620    28.3890    21.7740 ha         1 XAY       0.114000
     41 H9          18.6120    27.0460    21.5860 ha         1 XAY       0.127000
     42 H8          16.4730    27.1830    18.4900 hn         1 XAY       0.153000
     43 H5          14.9920    26.6610    17.7090 ha         1 XAY       0.127500
     44 H4          12.9010    25.7310    16.8360 ha         1 XAY       0.112000
     45 H1          11.4630    22.9590    17.3350 hc         1 XAY       0.041700
     46 H3          10.5870    23.5320    18.7650 hc         1 XAY       0.041700
     47 H2          10.7360    24.5750    17.3460 hc         1 XAY       0.041700
     48 H7          12.5240    23.2090    20.3170 ha         1 XAY       0.112000
     49 H6          14.6260    24.1240    21.2220 ha         1 XAY       0.127500
     50 H13         19.9340    29.7170    16.5150 hc         1 XAY       0.069700
     51 H21         21.2730    30.3030    17.4620 hc         1 XAY       0.069700
     52 H19         19.8560    32.0860    16.4750 hc         1 XAY       0.096700
@<TRIPOS>BOND
     1     1     2 1   
     2     2     3 1   
     3     2     4 1   
     4     4     5 ar  
     5     4     9 ar  
     6     5     6 ar  
     7     5    33 1   
     8     6     7 ar  
     9     6    34 1   
    10     7     8 ar  
    11     7    35 1   
    12     8     9 ar  
    13     8    36 1   
    14     9    10 1   
    15    10    11 1   
    16    10    37 1   
    17    11    12 2   
    18    11    32 1   
    19    13    14 3   
    20    13    32 1   
    21    15    16 ar  
    22    15    17 ar  
    23    15    31 1   
    24    16    20 ar  
    25    16    38 1   
    26    17    18 ar  
    27    17    39 1   
    28    18    19 ar  
    29    18    40 1   
    30    19    20 ar  
    31    19    41 1   
    32    20    21 1   
    33    21    22 1   
    34    21    42 1   
    35    22    23 2   
    36    22    24 1   
    37    24    25 ar  
    38    24    30 ar  
    39    25    26 ar  
    40    25    43 1   
    41    26    27 ar  
    42    26    44 1   
    43    27    28 1   
    44    27    29 ar  
    45    28    45 1   
    46    28    46 1   
    47    28    47 1   
    48    29    30 ar  
    49    29    48 1   
    50    30    49 1   
    51    31    32 1   
    52    31    50 1   
    53    31    51 1   
    54    32    52 1   
@<TRIPOS>SUBSTRUCTURE
     1 XAY         1 TEMP              0 ****  ****    0 ROOT
