@<TRIPOS>MOLECULE
XAY
   52    54     1     0     0
SMALL
bcc


@<TRIPOS>ATOM
      1 O4          24.7940    33.8200    18.0510 o          1 XAY      -0.808300
      2 C25         23.5900    33.6380    17.8480 c          1 XAY       0.936200
      3 O3          23.1010    32.9740    16.8900 o          1 XAY      -0.808300
      4 C24         22.6080    34.2750    18.8300 ca         1 XAY      -0.201600
      5 C23         23.1180    35.0820    19.8420 ca         1 XAY      -0.080000
      6 C22         22.2980    35.6970    20.7750 ca         1 XAY      -0.190000
      7 C21         20.9270    35.5040    20.6970 ca         1 XAY      -0.122000
      8 C20         20.3800    34.7080    19.7030 ca         1 XAY      -0.190000
      9 C19         21.2100    34.0880    18.7650 ca         1 XAY       0.089600
     10 N3          20.7350    33.2720    17.7390 ns         1 XAY      -0.499100
     11 C18         19.5030    32.7820    17.5410 c          1 XAY       0.680100
     12 O2          18.4970    33.0420    18.1750 o          1 XAY      -0.618100
     13 C17         18.0790    31.5190    16.0210 c1         1 XAY       0.256700
     14 N2          16.9990    31.2960    15.6950 n1         1 XAY      -0.413800
     15 C13         19.6770    29.8460    18.0450 ca         1 XAY      -0.059300
     16 C14         18.5760    28.9990    18.0330 ca         1 XAY      -0.161000
     17 C12         20.2890    30.1390    19.2610 ca         1 XAY      -0.116000
     18 C11         19.7810    29.6060    20.4360 ca         1 XAY      -0.110000
     19 C10         18.6700    28.7770    20.4270 ca         1 XAY      -0.133000
     20 C9          18.0640    28.4620    19.2120 ca         1 XAY       0.051600
     21 N1          16.9230    27.6520    19.1200 ns         1 XAY      -0.470100
     22 C8          16.6320    26.5730    19.8980 c          1 XAY       0.682700
     23 O1          17.3680    26.1690    20.7810 o          1 XAY      -0.586100
     24 C5          15.3400    25.8960    19.5890 ca         1 XAY      -0.153600
     25 C4          14.2490    26.5580    19.0300 ca         1 XAY      -0.085000
     26 C3          13.0620    25.8830    18.7930 ca         1 XAY      -0.142000
     27 C2          12.9290    24.5320    19.0990 ca         1 XAY      -0.059300
     28 C1          11.6570    23.7930    18.8090 c3         1 XAY      -0.048800
     29 C7          14.0210    23.8780    19.6690 ca         1 XAY      -0.142000
     30 C6          15.2050    24.5480    19.9190 ca         1 XAY      -0.085000
     31 C15         20.1860    30.4490    16.7670 c3         1 XAY      -0.022100
     32 C16         19.4650    31.7690    16.3910 c3         1 XAY      -0.093600
     33 H18         24.1880    35.2260    19.8930 ha         1 XAY       0.145000
     34 H17         22.7230    36.3190    21.5510 ha         1 XAY       0.109000
     35 H16         20.2680    35.9770    21.4150 ha         1 XAY       0.106000
     36 H15         19.3110    34.5750    19.6580 ha         1 XAY       0.148000
     37 H14         21.5410    32.9780    17.1370 hn         1 XAY       0.403500
     38 H12         18.1090    28.7420    17.0880 ha         1 XAY       0.125000
     39 H11         21.1620    30.7800    19.2910 ha         1 XAY       0.156000
     40 H10         20.2540    29.8420    21.3810 ha         1 XAY       0.132000
     41 H9          18.2840    28.3930    21.3590 ha         1 XAY       0.145000
     42 H8          16.3700    27.7790    18.2860 hn         1 XAY       0.319500
     43 H5          14.2980    27.6160    18.7980 ha         1 XAY       0.145500
     44 H4          12.2220    26.4220    18.3700 ha         1 XAY       0.130000
     45 H1          11.7130    23.2930    17.8400 hc         1 XAY       0.041700
     46 H3          11.4630    23.0250    19.5570 hc         1 XAY       0.041700
     47 H2          10.8000    24.4650    18.7790 hc         1 XAY       0.041700
     48 H7          13.9410    22.8280    19.9240 ha         1 XAY       0.130000
     49 H6          16.0340    24.0180    20.3680 ha         1 XAY       0.145500
     50 H13         20.0720    29.7530    15.9350 hc         1 XAY       0.069700
     51 H21         21.2510    30.6690    16.8490 hc         1 XAY       0.069700
     52 H19         19.9650    32.1850    15.5100 hc         1 XAY       0.096700
@<TRIPOS>BOND
     1     1     2 1   
     2     2     3 1   
     3     2     4 1   
     4     4     5 ar  
     5     4     9 ar  
     6     5     6 ar  
     7     5    33 1   
     8     6     7 ar  
     9     6    34 1   
    10     7     8 ar  
    11     7    35 1   
    12     8     9 ar  
    13     8    36 1   
    14     9    10 1   
    15    10    11 1   
    16    10    37 1   
    17    11    12 2   
    18    11    32 1   
    19    13    14 3   
    20    13    32 1   
    21    15    16 ar  
    22    15    17 ar  
    23    15    31 1   
    24    16    20 ar  
    25    16    38 1   
    26    17    18 ar  
    27    17    39 1   
    28    18    19 ar  
    29    18    40 1   
    30    19    20 ar  
    31    19    41 1   
    32    20    21 1   
    33    21    22 1   
    34    21    42 1   
    35    22    23 2   
    36    22    24 1   
    37    24    25 ar  
    38    24    30 ar  
    39    25    26 ar  
    40    25    43 1   
    41    26    27 ar  
    42    26    44 1   
    43    27    28 1   
    44    27    29 ar  
    45    28    45 1   
    46    28    46 1   
    47    28    47 1   
    48    29    30 ar  
    49    29    48 1   
    50    30    49 1   
    51    31    32 1   
    52    31    50 1   
    53    31    51 1   
    54    32    52 1   
@<TRIPOS>SUBSTRUCTURE
     1 XAY         1 TEMP              0 ****  ****    0 ROOT
