@<TRIPOS>MOLECULE
XAZ
   22    23     1     0     0
SMALL
No Charge or Current Charge


@<TRIPOS>ATOM
      1 C1           3.4550    -1.3090    -0.0240 c3         1 XAZ      -0.150400
      2 C2           2.0670    -0.7340    -0.0070 cc         1 XAZ       0.405300
      3 C3           1.9560     0.6970     0.0080 cc         1 XAZ      -0.248000
      4 C4           0.7380     1.3560     0.0240 cd         1 XAZ       0.013700
      5 C5           0.5750     2.8560     0.0400 c3         1 XAZ      -0.053800
      6 N6          -0.3880     0.5130     0.0240 na         1 XAZ       0.115900
      7 N7          -1.7180     0.8950     0.0380 nc         1 XAZ      -0.649100
      8 C8          -2.2780    -0.2970     0.0310 cd         1 XAZ       0.592500
      9 N9          -3.6040    -0.4030     0.0380 nv         1 XAZ      -0.982200
     10 C10         -1.4210    -1.4090     0.0120 cd         1 XAZ      -0.434600
     11 C11         -0.1400    -0.8570     0.0080 cd         1 XAZ       0.413500
     12 N12          1.0420    -1.5710    -0.0080 nd         1 XAZ      -0.667000
     13 H11C         4.0150    -0.9900     0.8630 hc         1 XAZ       0.057033
     14 H12C         3.4410    -2.4060    -0.0340 hc         1 XAZ       0.057033
     15 H13C         4.0020    -0.9730    -0.9120 hc         1 XAZ       0.057033
     16 H3           2.8770     1.2710     0.0070 ha         1 XAZ       0.136000
     17 H51C         1.5460     3.3660     0.0380 hc         1 XAZ       0.065033
     18 H52C         0.0180     3.2010    -0.8390 hc         1 XAZ       0.065033
     19 H53C         0.0300     3.1830     0.9330 hc         1 XAZ       0.065033
     20 H91N        -4.1230     0.4400    -0.1800 hn         1 XAZ       0.457500
     21 H92N        -4.0130    -1.2830    -0.2550 hn         1 XAZ       0.457500
     22 H10         -1.6880    -2.4560     0.0040 ha         1 XAZ       0.227000
@<TRIPOS>BOND
     1     1     2 1   
     2     1    13 1   
     3     1    14 1   
     4     1    15 1   
     5     2     3 1   
     6     2    12 2   
     7     3     4 2   
     8     3    16 1   
     9     4     5 1   
    10     4     6 1   
    11     5    17 1   
    12     5    18 1   
    13     5    19 1   
    14     6     7 1   
    15     6    11 1   
    16     7     8 2   
    17     8     9 1   
    18     8    10 1   
    19     9    20 1   
    20     9    21 1   
    21    10    11 2   
    22    10    22 1   
    23    11    12 1   
@<TRIPOS>SUBSTRUCTURE
     1 XAZ         1 TEMP              0 ****  ****    0 ROOT
