@<TRIPOS>MOLECULE
XAZ
   22    23     1     0     0
SMALL
abcg2


@<TRIPOS>ATOM
      1 C1           3.4770    -1.3050    -0.0270 c3         1 XAZ      -0.150400
      2 C2           2.1170    -0.6840    -0.0020 cc         1 XAZ       0.405300
      3 C3           1.9970     0.7260     0.0150 cc         1 XAZ      -0.248000
      4 C4           0.7590     1.3080     0.0290 cd         1 XAZ       0.013700
      5 C5           0.4990     2.7690     0.0460 c3         1 XAZ      -0.053800
      6 N6          -0.2980     0.4680     0.0250 na         1 XAZ       0.115900
      7 N7          -1.5860     0.8420     0.0320 nc         1 XAZ      -0.649100
      8 C8          -2.2630    -0.3030     0.0270 cd         1 XAZ       0.592500
      9 N9          -3.6290    -0.3000     0.0890 nv         1 XAZ      -0.982200
     10 C10         -1.4210    -1.4310     0.0130 cd         1 XAZ      -0.434600
     11 C11         -0.1420    -0.9070     0.0100 cd         1 XAZ       0.413500
     12 N12          1.0710    -1.4780    -0.0030 nd         1 XAZ      -0.667000
     13 H11C         4.0870    -0.9380     0.7990 hc         1 XAZ       0.057033
     14 H12C         3.4130    -2.3890     0.0380 hc         1 XAZ       0.057033
     15 H13C         4.0000    -1.0430    -0.9490 hc         1 XAZ       0.057033
     16 H3           2.8770     1.3520     0.0180 ha         1 XAZ       0.136000
     17 H51C         1.4380     3.3170     0.0520 hc         1 XAZ       0.065033
     18 H52C        -0.0790     3.0720    -0.8280 hc         1 XAZ       0.065033
     19 H53C        -0.0770     3.0510     0.9280 hc         1 XAZ       0.065033
     20 H91N        -4.0710     0.5510    -0.2200 hn         1 XAZ       0.457500
     21 H92N        -4.0780    -1.1190    -0.2890 hn         1 XAZ       0.457500
     22 H10         -1.7030    -2.4700     0.0050 ha         1 XAZ       0.227000
@<TRIPOS>BOND
     1     1     2 1   
     2     1    13 1   
     3     1    14 1   
     4     1    15 1   
     5     2     3 1   
     6     2    12 2   
     7     3     4 2   
     8     3    16 1   
     9     4     5 1   
    10     4     6 1   
    11     5    17 1   
    12     5    18 1   
    13     5    19 1   
    14     6     7 1   
    15     6    11 1   
    16     7     8 2   
    17     8     9 1   
    18     8    10 1   
    19     9    20 1   
    20     9    21 1   
    21    10    11 2   
    22    10    22 1   
    23    11    12 1   
@<TRIPOS>SUBSTRUCTURE
     1 XAZ         1 TEMP              0 ****  ****    0 ROOT
