@<TRIPOS>MOLECULE
XB0
   44    46     1     0     0
SMALL
No Charge or Current Charge


@<TRIPOS>ATOM
      1 C17        -20.0670   -10.2430     4.3820 ca         1 XB0      -0.126500
      2 C13        -20.0900   -11.2580     8.0900 c3         1 XB0       0.209600
      3 C14        -19.0280   -12.2570     8.6080 c3         1 XB0      -0.114100
      4 C15        -20.2430   -11.3190     6.5690 ca         1 XB0      -0.048300
      5 C16        -19.9350   -10.1920     5.7810 ca         1 XB0      -0.085500
      6 C19        -20.8240   -12.5480     4.5370 ca         1 XB0      -0.126500
      7 C20        -20.6920   -12.4980     5.9360 ca         1 XB0      -0.085500
      8 C21        -21.7070   -12.4780    10.9500 ca         1 XB0      -0.110800
      9 C22        -21.3580   -13.8300    10.8470 ca         1 XB0      -0.059000
     10 C23        -21.6690   -14.6680    11.9360 ca         1 XB0      -0.169000
     11 C24        -22.3160   -14.1440    13.0790 ca         1 XB0      -0.115000
     12 C11        -21.5290   -11.3910    10.0390 cc         1 XB0       0.005900
     13 C18        -20.5110   -11.4210     3.7600 ca         1 XB0      -0.125000
     14 C01        -24.7810   -12.8570    14.5680 c3         1 XB0      -0.082100
     15 C03        -22.5230   -12.3730    15.6640 c3         1 XB0      -0.082100
     16 C04        -22.6700   -12.7740    13.1540 ca         1 XB0      -0.094300
     17 C05        -22.3420   -11.9610    12.0480 ca         1 XB0      -0.058200
     18 C07        -22.1900   -10.2720    10.5430 cd         1 XB0      -0.108300
     19 C08        -22.4370    -8.9600     9.8580 c          1 XB0       0.728200
     20 N06        -22.6170   -10.6070    11.8590 na         1 XB0      -0.195700
     21 O09        -23.0670    -8.1170    10.4830 o          1 XB0      -0.707500
     22 O10        -21.9990    -8.7480     8.7370 o          1 XB0      -0.707500
     23 O12        -21.3660   -11.5590     8.6910 os         1 XB0      -0.317100
     24 H171       -19.8260    -9.3690     3.7810 ha         1 XB0       0.097500
     25 H131       -19.7740   -10.2440     8.3730 h1         1 XB0       0.081700
     26 H142       -18.8890   -12.1570     9.6910 hc         1 XB0       0.033033
     27 H143       -19.3140   -13.2910     8.3850 hc         1 XB0       0.033033
     28 H141       -18.0630   -12.0610     8.1280 hc         1 XB0       0.033033
     29 H161       -19.5910    -9.2730     6.2520 ha         1 XB0       0.121000
     30 H191       -21.1700   -13.4610     4.0570 ha         1 XB0       0.097500
     31 H201       -20.9410   -13.3750     6.5290 ha         1 XB0       0.121000
     32 H221       -20.8670   -14.2220     9.9610 ha         1 XB0       0.107000
     33 H231       -21.4120   -15.7240    11.8950 ha         1 XB0       0.088000
     34 H241       -22.5480   -14.8120    13.9050 ha         1 XB0       0.089000
     35 H181       -20.6140   -11.4610     2.6770 ha         1 XB0       0.094000
     36 H013       -25.3130   -12.3980    15.4110 hc         1 XB0       0.029200
     37 H012       -25.3860   -12.7120    13.6650 hc         1 XB0       0.029200
     38 H011       -24.7020   -13.9330    14.7600 hc         1 XB0       0.029200
     39 H021       -23.5540   -11.1410    14.2660 hc         1 XB0       0.046700
     40 H033       -23.0130   -11.8990    16.5230 hc         1 XB0       0.029200
     41 H031       -22.3590   -13.4300    15.9060 hc         1 XB0       0.029200
     42 H032       -21.5460   -11.8960    15.5240 hc         1 XB0       0.029200
     43 H061       -23.1170    -9.9910    12.4910 hn         1 XB0       0.366000
     44 C02        -23.3860   -12.2170    14.3920 c3         1 XB0      -0.008400
@<TRIPOS>BOND
     1     1     5 ar  
     2     1    13 ar  
     3     1    24 1   
     4     2     3 1   
     5     2     4 1   
     6     2    23 1   
     7     2    25 1   
     8     3    26 1   
     9     3    27 1   
    10     3    28 1   
    11     4     5 ar  
    12     4     7 ar  
    13     5    29 1   
    14     6     7 ar  
    15     6    13 ar  
    16     6    30 1   
    17     7    31 1   
    18     8     9 ar  
    19     8    12 1   
    20     8    17 ar  
    21     9    10 ar  
    22     9    32 1   
    23    10    11 ar  
    24    10    33 1   
    25    11    16 ar  
    26    11    34 1   
    27    12    18 2   
    28    12    23 1   
    29    13    35 1   
    30    14    36 1   
    31    14    37 1   
    32    14    38 1   
    33    14    44 1   
    34    15    40 1   
    35    15    41 1   
    36    15    42 1   
    37    15    44 1   
    38    16    17 ar  
    39    16    44 1   
    40    17    20 1   
    41    18    19 1   
    42    18    20 1   
    43    19    21 1   
    44    19    22 1   
    45    20    43 1   
    46    39    44 1   
@<TRIPOS>SUBSTRUCTURE
     1 XB0         1 TEMP              0 ****  ****    0 ROOT
