@<TRIPOS>MOLECULE
XB0
   44    46     1     0     0
SMALL
abcg2


@<TRIPOS>ATOM
      1 C17        -20.0140   -10.2060     4.4800 ca         1 XB0      -0.126500
      2 C13        -20.3910   -11.2950     8.0950 c3         1 XB0       0.209600
      3 C14        -19.2000   -12.0190     8.7040 c3         1 XB0      -0.114100
      4 C15        -20.3530   -11.3350     6.5900 ca         1 XB0      -0.048300
      5 C16        -20.0860   -10.1780     5.8670 ca         1 XB0      -0.085500
      6 C19        -20.4960   -12.5570     4.5130 ca         1 XB0      -0.126500
      7 C20        -20.5580   -12.5270     5.8980 ca         1 XB0      -0.085500
      8 C21        -21.9280   -12.7050    10.7930 ca         1 XB0      -0.110800
      9 C22        -21.5540   -14.0540    10.7830 ca         1 XB0      -0.059000
     10 C23        -21.6430   -14.7600    11.9630 ca         1 XB0      -0.169000
     11 C24        -22.0940   -14.1490    13.1490 ca         1 XB0      -0.115000
     12 C11        -21.9760   -11.6850     9.7960 cc         1 XB0       0.005900
     13 C18        -20.2210   -11.3960     3.7980 ca         1 XB0      -0.125000
     14 C01        -24.5290   -12.0770    14.4090 c3         1 XB0      -0.082100
     15 C03        -22.5190   -12.7790    15.7420 c3         1 XB0      -0.082100
     16 C04        -22.4730   -12.8200    13.2010 ca         1 XB0      -0.094300
     17 C05        -22.3850   -12.1140    11.9910 ca         1 XB0      -0.058200
     18 C07        -22.4420   -10.5340    10.3900 cd         1 XB0      -0.108300
     19 C08        -22.7460    -9.1550     9.8690 c          1 XB0       0.728200
     20 N06        -22.6780   -10.8160    11.7140 na         1 XB0      -0.195700
     21 O09        -23.1910    -8.3560    10.7180 o          1 XB0      -0.707500
     22 O10        -22.5360    -8.9430     8.6610 o          1 XB0      -0.707500
     23 O12        -21.6300   -11.8850     8.5000 os         1 XB0      -0.317100
     24 H171       -19.8030    -9.2960     3.9330 ha         1 XB0       0.097500
     25 H131       -20.3770   -10.2510     8.4170 h1         1 XB0       0.081700
     26 H142       -19.2270   -11.9810     9.7940 hc         1 XB0       0.033033
     27 H143       -19.1670   -13.0660     8.3970 hc         1 XB0       0.033033
     28 H141       -18.2740   -11.5430     8.3800 hc         1 XB0       0.033033
     29 H161       -19.9320    -9.2420     6.3930 ha         1 XB0       0.121000
     30 H191       -20.6600   -13.4890     3.9870 ha         1 XB0       0.097500
     31 H201       -20.7670   -13.4410     6.4410 ha         1 XB0       0.121000
     32 H221       -21.2030   -14.5280     9.8750 ha         1 XB0       0.107000
     33 H231       -21.3590   -15.8050    11.9890 ha         1 XB0       0.088000
     34 H241       -22.1360   -14.7520    14.0470 ha         1 XB0       0.089000
     35 H181       -20.1710   -11.4220     2.7170 ha         1 XB0       0.094000
     36 H013       -24.9130   -11.5260    15.2690 hc         1 XB0       0.029200
     37 H012       -24.8950   -11.5850    13.5080 hc         1 XB0       0.029200
     38 H011       -24.9520   -13.0830    14.4370 hc         1 XB0       0.029200
     39 H021       -22.6240   -11.1090    14.4380 hc         1 XB0       0.046700
     40 H033       -22.8470   -12.1820    16.5930 hc         1 XB0       0.029200
     41 H031       -22.9250   -13.7830    15.8770 hc         1 XB0       0.029200
     42 H032       -21.4310   -12.8470    15.7810 hc         1 XB0       0.029200
     43 H061       -23.0440   -10.1240    12.3470 hn         1 XB0       0.366000
     44 C02        -22.9980   -12.1400    14.4440 c3         1 XB0      -0.008400
@<TRIPOS>BOND
     1     1     5 ar  
     2     1    13 ar  
     3     1    24 1   
     4     2     3 1   
     5     2     4 1   
     6     2    23 1   
     7     2    25 1   
     8     3    26 1   
     9     3    27 1   
    10     3    28 1   
    11     4     5 ar  
    12     4     7 ar  
    13     5    29 1   
    14     6     7 ar  
    15     6    13 ar  
    16     6    30 1   
    17     7    31 1   
    18     8     9 ar  
    19     8    12 1   
    20     8    17 ar  
    21     9    10 ar  
    22     9    32 1   
    23    10    11 ar  
    24    10    33 1   
    25    11    16 ar  
    26    11    34 1   
    27    12    18 2   
    28    12    23 1   
    29    13    35 1   
    30    14    36 1   
    31    14    37 1   
    32    14    38 1   
    33    14    44 1   
    34    15    40 1   
    35    15    41 1   
    36    15    42 1   
    37    15    44 1   
    38    16    17 ar  
    39    16    44 1   
    40    17    20 1   
    41    18    19 1   
    42    18    20 1   
    43    19    21 1   
    44    19    22 1   
    45    20    43 1   
    46    39    44 1   
@<TRIPOS>SUBSTRUCTURE
     1 XB0         1 TEMP              0 ****  ****    0 ROOT
