@<TRIPOS>MOLECULE
XB1
   56    58     1     0     0
SMALL
bcc


@<TRIPOS>ATOM
      1 C10         35.0890   -36.5060     6.2330 c3         1 XB1       0.087000
      2 C15         38.6440   -39.7800     5.8420 c3         1 XB1       0.153800
      3 C17         40.2010   -37.9460     5.4790 c6         1 XB1       0.135300
      4 C20         39.8180   -37.7960     2.9080 c6         1 XB1       0.129900
      5 C21         38.9830   -38.8580     3.6240 c6         1 XB1       0.135300
      6 C26         34.4190   -29.7900     8.2750 c          1 XB1       0.839500
      7 C28         35.4710   -28.7420    10.1610 c3         1 XB1       0.083300
      8 C02         35.0010   -31.1510    10.2890 c          1 XB1       0.668000
      9 C03         34.4600   -32.2640     9.5690 cc         1 XB1       0.174800
     10 C04         33.9570   -32.0910     8.3060 cd         1 XB1       0.009000
     11 C06         33.7710   -34.1680     8.9490 cd         1 XB1       0.468800
     12 C08         34.9790   -36.6280     8.7890 c3         1 XB1      -0.000300
     13 C09         35.7970   -36.2620     7.5650 c3         1 XB1      -0.104400
     14 C12         35.0530   -38.9900     6.0230 cs         1 XB1       0.613400
     15 C14         37.1850   -40.1710     5.6460 c3         1 XB1       0.104000
     16 C18         40.2300   -36.5550     4.8500 c6         1 XB1       0.129900
     17 N05         33.5230   -33.3000     7.9070 na         1 XB1      -0.304900
     18 N11         34.4440   -37.7980     6.1270 ns         1 XB1      -0.527900
     19 N13         36.3710   -38.9940     5.8390 ns         1 XB1      -0.507900
     20 N16         38.9850   -38.6110     5.0620 n3         1 XB1      -0.753600
     21 N23         34.3260   -33.5660     9.9570 nc         1 XB1      -0.540000
     22 N24         33.9190   -30.9110     7.6420 n          1 XB1      -0.358000
     23 N27         34.9420   -29.9580     9.5510 n          1 XB1      -0.516400
     24 O01         35.4640   -31.1930    11.4120 o          1 XB1      -0.567500
     25 O19         39.6890   -36.5480     3.5420 os         1 XB1      -0.395600
     26 O29         34.4070   -28.7010     7.7430 o          1 XB1      -0.619500
     27 S07         33.3260   -35.8530     8.8550 ss         1 XB1      -0.293400
     28 S22         34.1440   -40.4130     6.1260 s          1 XB1      -0.704400
     29 H1          35.7930   -36.3590     5.4100 h1         1 XB1       0.053700
     30 H2          34.3060   -35.7630     6.0860 h1         1 XB1       0.053700
     31 H3          39.2740   -40.6500     5.6030 h1         1 XB1       0.046700
     32 H4          38.8030   -39.5440     6.8970 h1         1 XB1       0.046700
     33 H5          41.1040   -38.5190     5.2190 h1         1 XB1       0.044200
     34 H6          40.2050   -37.8380     6.5650 h1         1 XB1       0.044200
     35 H7          39.4730   -37.6810     1.8790 h1         1 XB1       0.048450
     36 H8          40.8700   -38.1070     2.8560 h1         1 XB1       0.048450
     37 H9          37.9530   -38.8420     3.2580 h1         1 XB1       0.044200
     38 H10         39.3960   -39.8490     3.3780 h1         1 XB1       0.044200
     39 H11         35.8870   -28.9940    11.1290 h1         1 XB1       0.059367
     40 H12         36.2550   -28.3140     9.5410 h1         1 XB1       0.059367
     41 H13         34.6830   -28.0040    10.2980 h1         1 XB1       0.059367
     42 H14         35.5120   -36.3740     9.7040 h1         1 XB1       0.092200
     43 H15         34.7670   -37.6980     8.8230 h1         1 XB1       0.092200
     44 H16         36.7280   -36.8330     7.6170 hc         1 XB1       0.059200
     45 H17         36.0880   -35.2100     7.6050 hc         1 XB1       0.059200
     46 H19         37.0170   -40.6010     4.6540 h1         1 XB1       0.071700
     47 H20         36.9150   -40.9360     6.3720 h1         1 XB1       0.071700
     48 H21         41.2600   -36.1750     4.8500 h1         1 XB1       0.048450
     49 H22         39.6220   -35.8680     5.4440 h1         1 XB1       0.048450
     50 H23         33.4530   -29.8240     5.9300 h1         1 XB1       0.059033
     51 H24         33.8910   -31.5090     5.6340 h1         1 XB1       0.059033
     52 H25         32.3000   -31.1060     6.3220 h1         1 XB1       0.059033
     53 H26         33.1030   -33.5500     7.0220 hn         1 XB1       0.318700
     54 H27         33.4560   -37.8390     6.3120 hn         1 XB1       0.352500
     55 H29         36.8710   -38.1290     5.6680 hn         1 XB1       0.332500
     56 C25         33.3560   -30.8360     6.3030 c3         1 XB1       0.085300
@<TRIPOS>BOND
     1     1    13 1   
     2     1    18 1   
     3     1    29 1   
     4     1    30 1   
     5     2    15 1   
     6     2    20 1   
     7     2    31 1   
     8     2    32 1   
     9     3    16 1   
    10     3    20 1   
    11     3    33 1   
    12     3    34 1   
    13     4     5 1   
    14     4    25 1   
    15     4    35 1   
    16     4    36 1   
    17     5    20 1   
    18     5    37 1   
    19     5    38 1   
    20     6    22 1   
    21     6    23 1   
    22     6    26 2   
    23     7    23 1   
    24     7    39 1   
    25     7    40 1   
    26     7    41 1   
    27     8     9 1   
    28     8    23 1   
    29     8    24 2   
    30     9    10 2   
    31     9    21 1   
    32    10    17 1   
    33    10    22 1   
    34    11    17 1   
    35    11    21 2   
    36    11    27 1   
    37    12    13 1   
    38    12    27 1   
    39    12    42 1   
    40    12    43 1   
    41    13    44 1   
    42    13    45 1   
    43    14    18 1   
    44    14    19 1   
    45    14    28 2   
    46    15    19 1   
    47    15    46 1   
    48    15    47 1   
    49    16    25 1   
    50    16    48 1   
    51    16    49 1   
    52    17    53 1   
    53    18    54 1   
    54    19    55 1   
    55    22    56 1   
    56    50    56 1   
    57    51    56 1   
    58    52    56 1   
@<TRIPOS>SUBSTRUCTURE
     1 XB1         1 TEMP              0 ****  ****    0 ROOT
