@<TRIPOS>MOLECULE
XB1
   56    58     1     0     0
SMALL
No Charge or Current Charge


@<TRIPOS>ATOM
      1 C10         34.8290   -37.1040     5.5770 c3         1 XB1       0.087000
      2 C15         38.7310   -39.9060     6.1820 c3         1 XB1       0.153800
      3 C17         40.1830   -37.8900     6.3930 c6         1 XB1       0.135300
      4 C20         39.8160   -37.1650     3.6160 c6         1 XB1       0.153100
      5 C21         39.3850   -38.5690     4.1560 c6         1 XB1       0.135300
      6 C26         34.2520   -29.5070     8.4820 c          1 XB1       0.630000
      7 C28         36.5760   -28.9010     9.1280 c3         1 XB1       0.083300
      8 C02         35.9520   -31.3000     8.8880 c          1 XB1       0.525500
      9 C03         34.8690   -32.2730     8.5740 cc         1 XB1       0.109500
     10 C04         33.6180   -31.8270     8.2600 cd         1 XB1       0.023600
     11 C06         33.7220   -34.0150     8.2070 cd         1 XB1       0.468800
     12 C08         34.6870   -36.6970     8.1450 c3         1 XB1       0.047600
     13 C09         35.5380   -36.5980     6.8560 c3         1 XB1      -0.104400
     14 C12         35.0420   -39.6450     5.7020 cs         1 XB1       0.479400
     15 C14         37.4260   -40.4990     5.6000 c3         1 XB1       0.104000
     16 C18         40.5660   -36.4900     5.8050 c6         1 XB1       0.153100
     17 N05         32.8620   -32.9600     8.0250 na         1 XB1      -0.304500
     18 N11         34.3280   -38.4830     5.6880 ns         1 XB1      -0.460900
     19 N13         36.3830   -39.4740     5.5700 ns         1 XB1      -0.440900
     20 N16         39.0910   -38.5700     5.6280 n3         1 XB1      -0.753600
     21 N23         34.9410   -33.6480     8.5500 nc         1 XB1      -0.540000
     22 N24         33.2730   -30.4910     8.2080 n          1 XB1      -0.291000
     23 N27         35.5530   -29.9430     8.8300 n          1 XB1      -0.382400
     24 O01         37.0970   -31.6350     9.1700 o          1 XB1      -0.492000
     25 O19         39.7560   -36.1550     4.6520 os         1 XB1      -0.442000
     26 O29         33.9790   -28.3150     8.4160 o          1 XB1      -0.544000
     27 S07         33.1460   -35.6720     8.0360 ss         1 XB1      -0.341300
     28 S22         34.2940   -41.1260     5.8520 s          1 XB1      -0.704400
     29 H1          35.5190   -37.0400     4.7250 h1         1 XB1       0.053700
     30 H2          33.9770   -36.4490     5.3530 h1         1 XB1       0.053700
     31 H3          39.5490   -40.6230     6.0240 h1         1 XB1       0.046700
     32 H4          38.5900   -39.8170     7.2680 h1         1 XB1       0.046700
     33 H5          41.0860   -38.5190     6.4010 h1         1 XB1       0.044200
     34 H6          39.8830   -37.7590     7.4430 h1         1 XB1       0.044200
     35 H7          39.1560   -36.8660     2.7890 h1         1 XB1       0.048450
     36 H8          40.8420   -37.2170     3.2240 h1         1 XB1       0.048450
     37 H9          38.5030   -38.9000     3.5890 h1         1 XB1       0.044200
     38 H10         40.1890   -39.2860     3.9310 h1         1 XB1       0.044200
     39 H11         37.3570   -29.2900     9.7930 h1         1 XB1       0.059367
     40 H12         37.0400   -28.5640     8.1920 h1         1 XB1       0.059367
     41 H13         36.1180   -28.0390     9.6290 h1         1 XB1       0.059367
     42 H14         35.2790   -36.3670     9.0090 h1         1 XB1       0.092200
     43 H15         34.4050   -37.7430     8.3170 h1         1 XB1       0.092200
     44 H16         36.4640   -37.1630     7.0100 hc         1 XB1       0.059200
     45 H17         35.8430   -35.5570     6.6980 hc         1 XB1       0.059200
     46 H19         37.6020   -40.8550     4.5780 h1         1 XB1       0.071700
     47 H20         37.1070   -41.3500     6.2150 h1         1 XB1       0.071700
     48 H21         41.6260   -36.4880     5.5140 h1         1 XB1       0.048450
     49 H22         40.4270   -35.7160     6.5730 h1         1 XB1       0.048450
     50 H23         31.9060   -29.6100     6.8500 h1         1 XB1       0.059033
     51 H24         31.2060   -30.9050     7.8590 h1         1 XB1       0.059033
     52 H25         31.5440   -29.3130     8.5750 h1         1 XB1       0.059033
     53 H26         31.8870   -33.0220     7.7710 hn         1 XB1       0.369000
     54 H27         33.3240   -38.6020     5.7730 hn         1 XB1       0.352500
     55 H29         36.7160   -38.5200     5.4980 hn         1 XB1       0.332500
     56 C25         31.9010   -30.0570     7.8520 c3         1 XB1       0.085300
@<TRIPOS>BOND
     1     1    13 1   
     2     1    18 1   
     3     1    29 1   
     4     1    30 1   
     5     2    15 1   
     6     2    20 1   
     7     2    31 1   
     8     2    32 1   
     9     3    16 1   
    10     3    20 1   
    11     3    33 1   
    12     3    34 1   
    13     4     5 1   
    14     4    25 1   
    15     4    35 1   
    16     4    36 1   
    17     5    20 1   
    18     5    37 1   
    19     5    38 1   
    20     6    22 1   
    21     6    23 1   
    22     6    26 2   
    23     7    23 1   
    24     7    39 1   
    25     7    40 1   
    26     7    41 1   
    27     8     9 1   
    28     8    23 1   
    29     8    24 2   
    30     9    10 2   
    31     9    21 1   
    32    10    17 1   
    33    10    22 1   
    34    11    17 1   
    35    11    21 2   
    36    11    27 1   
    37    12    13 1   
    38    12    27 1   
    39    12    42 1   
    40    12    43 1   
    41    13    44 1   
    42    13    45 1   
    43    14    18 1   
    44    14    19 1   
    45    14    28 2   
    46    15    19 1   
    47    15    46 1   
    48    15    47 1   
    49    16    25 1   
    50    16    48 1   
    51    16    49 1   
    52    17    53 1   
    53    18    54 1   
    54    19    55 1   
    55    22    56 1   
    56    50    56 1   
    57    51    56 1   
    58    52    56 1   
@<TRIPOS>SUBSTRUCTURE
     1 XB1         1 TEMP              0 ****  ****    0 ROOT
