@<TRIPOS>MOLECULE
XB2
   39    40     1     0     0
SMALL
No Charge or Current Charge


@<TRIPOS>ATOM
      1 O01         -9.0040     5.0740    17.6960 o          1 XB2      -0.573000
      2 C02         -9.5970     4.8950    18.7460 c          1 XB2       0.624000
      3 N03        -10.9810     4.6730    18.8470 n          1 XB2      -0.375400
      4 C04        -11.8090     4.6520    17.5990 c3         1 XB2       0.111700
      5 C05        -11.8870     6.0190    16.8830 c3         1 XB2      -0.102100
      6 C06        -11.4930     3.4610    16.6660 c3         1 XB2      -0.102100
      7 C07        -11.6200     4.4690    20.0840 c          1 XB2       0.604200
      8 C08        -10.7460     4.5060    21.2470 cc         1 XB2      -0.486200
      9 C09         -9.4180     4.7240    21.1340 cd         1 XB2       0.364600
     10 N10         -8.5590     4.7710    22.1780 nu         1 XB2      -0.844200
     11 C11         -8.8900     4.6430    23.6040 c3         1 XB2       0.292800
     12 C12         -9.6100     5.8970    24.1070 ca         1 XB2      -0.118300
     13 C13        -10.8650     5.7830    24.7410 ca         1 XB2      -0.095500
     14 C14        -11.5340     6.9270    25.2090 ca         1 XB2      -0.104500
     15 C15        -10.9540     8.1970    25.0490 ca         1 XB2      -0.100000
     16 C16         -9.7040     8.3210    24.4220 ca         1 XB2      -0.104500
     17 C17         -9.0340     7.1770    23.9530 ca         1 XB2      -0.095500
     18 C18         -7.6060     4.3620    24.4040 c3         1 XB2      -0.103100
     19 N19         -8.8980     4.9050    19.9090 ns         1 XB2      -0.550600
     20 O20        -12.8200     4.2730    20.2070 o          1 XB2      -0.556000
     21 H1         -12.8490     4.4670    17.8950 h1         1 XB2       0.086700
     22 H2         -12.1760     6.8060    17.5900 hc         1 XB2       0.046033
     23 H3         -10.9270     6.2950    16.4330 hc         1 XB2       0.046033
     24 H4         -12.6370     5.9900    16.0840 hc         1 XB2       0.046033
     25 H5         -11.5170     2.5180    17.2260 hc         1 XB2       0.046033
     26 H6         -12.2380     3.3960    15.8630 hc         1 XB2       0.046033
     27 H7         -10.5070     3.5620    16.2010 hc         1 XB2       0.046033
     28 H8         -11.2350     4.3540    22.1970 ha         1 XB2       0.223000
     29 H9          -7.5830     4.9490    21.9530 hn         1 XB2       0.488000
     30 H10         -9.5530     3.7760    23.7410 h1         1 XB2       0.073700
     31 H11        -11.3260     4.8060    24.8730 ha         1 XB2       0.109500
     32 H12        -12.5020     6.8300    25.6950 ha         1 XB2       0.116500
     33 H13        -11.4730     9.0820    25.4110 ha         1 XB2       0.117000
     34 H14         -9.2530     9.3030    24.2970 ha         1 XB2       0.116500
     35 H15         -8.0680     7.2870    23.4660 ha         1 XB2       0.109500
     36 H16         -7.8420     4.2470    25.4680 hc         1 XB2       0.050367
     37 H17         -7.1310     3.4360    24.0600 hc         1 XB2       0.050367
     38 H18         -6.8850     5.1820    24.3010 hc         1 XB2       0.050367
     39 H19         -7.9100     5.0670    19.7880 hn         1 XB2       0.448000
@<TRIPOS>BOND
     1     1     2 2   
     2     2     3 1   
     3     2    19 1   
     4     3     4 1   
     5     3     7 1   
     6     4     5 1   
     7     4     6 1   
     8     4    21 1   
     9     5    22 1   
    10     5    23 1   
    11     5    24 1   
    12     6    25 1   
    13     6    26 1   
    14     6    27 1   
    15     7     8 1   
    16     7    20 2   
    17     8     9 2   
    18     8    28 1   
    19     9    10 1   
    20     9    19 1   
    21    10    11 1   
    22    10    29 1   
    23    11    12 1   
    24    11    18 1   
    25    11    30 1   
    26    12    13 ar  
    27    12    17 ar  
    28    13    14 ar  
    29    13    31 1   
    30    14    15 ar  
    31    14    32 1   
    32    15    16 ar  
    33    15    33 1   
    34    16    17 ar  
    35    16    34 1   
    36    17    35 1   
    37    18    36 1   
    38    18    37 1   
    39    18    38 1   
    40    19    39 1   
@<TRIPOS>SUBSTRUCTURE
     1 XB2         1 TEMP              0 ****  ****    0 ROOT
