@<TRIPOS>MOLECULE
XB2
   39    40     1     0     0
SMALL
abcg2


@<TRIPOS>ATOM
      1 O01         -9.0020     5.0560    17.6780 o          1 XB2      -0.573000
      2 C02         -9.5820     4.8860    18.7440 c          1 XB2       0.624000
      3 N03        -10.9410     4.7150    18.8630 n          1 XB2      -0.375400
      4 C04        -11.7860     4.7280    17.6410 c3         1 XB2       0.111700
      5 C05        -11.7620     6.0870    16.9450 c3         1 XB2      -0.102100
      6 C06        -11.4660     3.5590    16.7130 c3         1 XB2      -0.102100
      7 C07        -11.5870     4.5240    20.1190 c          1 XB2       0.604200
      8 C08        -10.7580     4.5090    21.2720 cc         1 XB2      -0.486200
      9 C09         -9.4000     4.6730    21.1670 cd         1 XB2       0.364600
     10 N10         -8.5290     4.6560    22.1910 nu         1 XB2      -0.844200
     11 C11         -8.9330     4.5990    23.5910 c3         1 XB2       0.292800
     12 C12         -9.6650     5.8530    24.0440 ca         1 XB2      -0.118300
     13 C13        -10.7000     5.7480    24.9710 ca         1 XB2      -0.095500
     14 C14        -11.3570     6.8850    25.4300 ca         1 XB2      -0.104500
     15 C15        -10.9870     8.1410    24.9610 ca         1 XB2      -0.100000
     16 C16         -9.9560     8.2520    24.0320 ca         1 XB2      -0.104500
     17 C17         -9.3000     7.1140    23.5770 ca         1 XB2      -0.095500
     18 C18         -7.6890     4.3400    24.4410 c3         1 XB2      -0.103100
     19 N19         -8.8620     4.8600    19.9190 ns         1 XB2      -0.550600
     20 O20        -12.8140     4.3840    20.1550 o          1 XB2      -0.556000
     21 H1         -12.7860     4.5750    18.0360 h1         1 XB2       0.086700
     22 H2         -12.0040     6.8830    17.6520 hc         1 XB2       0.046033
     23 H3         -10.7920     6.2950    16.5000 hc         1 XB2       0.046033
     24 H4         -12.5160     6.0950    16.1560 hc         1 XB2       0.046033
     25 H5         -11.4990     2.6160    17.2610 hc         1 XB2       0.046033
     26 H6         -12.2160     3.5180    15.9220 hc         1 XB2       0.046033
     27 H7         -10.4840     3.6640    16.2550 hc         1 XB2       0.046033
     28 H8         -11.2360     4.3810    22.2270 ha         1 XB2       0.223000
     29 H9          -7.5680     4.8950    21.9980 hn         1 XB2       0.488000
     30 H10         -9.6110     3.7510    23.7070 h1         1 XB2       0.073700
     31 H11        -10.9970     4.7690    25.3290 ha         1 XB2       0.109500
     32 H12        -12.1640     6.7880    26.1470 ha         1 XB2       0.116500
     33 H13        -11.5020     9.0270    25.3110 ha         1 XB2       0.117000
     34 H14         -9.6650     9.2260    23.6580 ha         1 XB2       0.116500
     35 H15         -8.5060     7.2070    22.8460 ha         1 XB2       0.109500
     36 H16         -7.9670     4.2780    25.4920 hc         1 XB2       0.050367
     37 H17         -7.2130     3.4040    24.1450 hc         1 XB2       0.050367
     38 H18         -6.9720     5.1560    24.3230 hc         1 XB2       0.050367
     39 H19         -7.8660     4.9810    19.8060 hn         1 XB2       0.448000
@<TRIPOS>BOND
     1     1     2 2   
     2     2     3 1   
     3     2    19 1   
     4     3     4 1   
     5     3     7 1   
     6     4     5 1   
     7     4     6 1   
     8     4    21 1   
     9     5    22 1   
    10     5    23 1   
    11     5    24 1   
    12     6    25 1   
    13     6    26 1   
    14     6    27 1   
    15     7     8 1   
    16     7    20 2   
    17     8     9 2   
    18     8    28 1   
    19     9    10 1   
    20     9    19 1   
    21    10    11 1   
    22    10    29 1   
    23    11    12 1   
    24    11    18 1   
    25    11    30 1   
    26    12    13 ar  
    27    12    17 ar  
    28    13    14 ar  
    29    13    31 1   
    30    14    15 ar  
    31    14    32 1   
    32    15    16 ar  
    33    15    33 1   
    34    16    17 ar  
    35    16    34 1   
    36    17    35 1   
    37    18    36 1   
    38    18    37 1   
    39    18    38 1   
    40    19    39 1   
@<TRIPOS>SUBSTRUCTURE
     1 XB2         1 TEMP              0 ****  ****    0 ROOT
