@<TRIPOS>MOLECULE
XB3
  114   122     1     0     0
SMALL
abcg2


@<TRIPOS>ATOM
      1 C4          -6.8920    59.8700    83.1800 ca         1 XB3       0.257000
      2 C14         -6.0260    55.9220    86.0680 ca         1 XB3      -0.098500
      3 C5          -7.7870    59.4190    82.2080 ca         1 XB3       0.271000
      4 C6          -7.5230    59.7000    80.8690 ca         1 XB3      -0.136000
      5 C11         -9.1110    56.8890    84.0980 c5         1 XB3      -0.024400
      6 C7          -6.3780    60.3740    80.4670 ca         1 XB3      -0.073300
      7 C8          -6.1230    60.6320    79.0120 c3         1 XB3      -0.039800
      8 C9          -9.3110    57.5430    81.7310 c5         1 XB3       0.457500
      9 C10         -9.6490    56.4320    82.7430 c5         1 XB3      -0.127400
     10 C12         -7.6920    56.4890    84.4050 ca         1 XB3      -0.095300
     11 C13         -7.3350    56.2140    85.7230 ca         1 XB3      -0.092500
     12 N1          -8.9030    58.6740    82.5580 nh         1 XB3      -0.826400
     13 N2         -10.9540    58.9160    85.5580 ns         1 XB3      -0.503500
     14 C3          -5.7630    60.5750    82.7790 ca         1 XB3      -0.076000
     15 N3          -8.6920    59.1870    86.1820 ne         1 XB3      -0.753100
     16 C15         -5.0210    55.8980    85.1020 cp         1 XB3      -0.028000
     17 C16         -3.6190    55.6140    85.4650 cp         1 XB3      -0.032000
     18 C17         -2.5720    56.3090    84.8560 ca         1 XB3      -0.097000
     19 C18         -1.2530    56.0470    85.1960 ca         1 XB3      -0.112000
     20 C19         -0.9550    55.0830    86.1510 ca         1 XB3      -0.109000
     21 C2          -5.4800    60.8190    81.4410 ca         1 XB3      -0.077300
     22 C20         -1.9880    54.3870    86.7640 ca         1 XB3      -0.112000
     23 C21         -3.3070    54.6500    86.4250 ca         1 XB3      -0.097000
     24 C22         -5.3830    56.1490    83.7780 ca         1 XB3      -0.098500
     25 C23         -6.6940    56.4340    83.4350 ca         1 XB3      -0.092500
     26 C24         -9.2330    58.4580    83.9310 c5         1 XB3       0.059900
     27 C25        -10.6900    58.8180    84.2320 c          1 XB3       0.583000
     28 C26         -9.9750    58.9410    86.5610 c          1 XB3       0.735400
     29 C27         -8.3560    59.1530    84.9300 c2         1 XB3       0.737200
     30 C29         -6.4170    61.3380    86.2140 c3         1 XB3       0.171300
     31 C30         -5.1210    61.8130    86.8860 c3         1 XB3       0.095300
     32 C31         -5.3300    63.1370    87.6460 c3         1 XB3       0.163300
     33 C32         -4.0320    63.5990    88.2930 c3         1 XB3       0.205600
     34 C33         -5.2500    68.6050    88.1150 c3         1 XB3       0.219600
     35 C34         -6.4250    69.3810    87.5390 c5         1 XB3       0.103300
     36 C35         -6.6270    71.6600    87.9520 c5         1 XB3       0.266300
     37 C36         -4.9920    72.3880    89.7240 cc         1 XB3       0.440700
     38 C37         -6.0010    74.0380    90.5690 ca         1 XB3      -0.093600
     39 C38         -6.4770    75.1410    91.3020 ca         1 XB3       0.440900
     40 C39         -8.3340    75.1160    89.9460 ca         1 XB3       0.159900
     41 C40         -6.8150    73.5850    89.5440 ca         1 XB3       0.124500
     42 C41         -5.6500    71.4720    86.7830 c5         1 XB3       0.133300
     43 C42         -6.1050    70.1250    86.2400 c5         1 XB3       0.143300
     44 N4          -7.1700    59.6210    84.5440 nh         1 XB3      -0.678400
     45 N5          -6.1460    72.5250    88.9970 na         1 XB3      -0.281300
     46 N6          -4.8660    73.2730    90.6650 nd         1 XB3      -0.578100
     47 N7          -5.7980    75.6800    92.3160 nv         1 XB3      -1.079900
     48 N8          -7.6610    75.6590    90.9570 nb         1 XB3      -0.321000
     49 N9          -7.9940    74.0880    89.1880 nb         1 XB3      -0.201000
     50 O1         -10.3380    57.8400    80.8390 oh         1 XB3      -0.658000
     51 O10         -2.7560    66.5550    87.9490 os         1 XB3      -0.728800
     52 O11         -3.0230    68.1120    86.0020 o          1 XB3      -0.849000
     53 O12         -4.0530    65.7260    85.8910 o          1 XB3      -0.849000
     54 O13         -5.1080    67.4180    87.3650 os         1 XB3      -0.617400
     55 O14         -6.8360    70.3780    88.4770 os         1 XB3      -0.456000
     56 O15         -5.6970    72.4820    85.8270 oh         1 XB3      -0.682000
     57 O16         -7.2490    70.3440    85.4530 oh         1 XB3      -0.722000
     58 O2         -11.5380    58.9130    83.3730 o          1 XB3      -0.546000
     59 O3         -10.3130    58.8280    87.7190 o          1 XB3      -0.517000
     60 O4          -6.8570    62.2300    85.2250 oh         1 XB3      -0.767000
     61 O5          -4.7200    60.7910    87.7770 oh         1 XB3      -0.677000
     62 O6          -5.8820    64.1180    86.7950 oh         1 XB3      -0.807000
     63 O7          -4.2840    64.7900    89.0120 os         1 XB3      -0.603400
     64 O8          -3.6140    66.7930    90.3560 o          1 XB3      -0.847000
     65 O9          -1.8160    65.0130    89.6970 o          1 XB3      -0.847000
     66 P1          -3.0520    65.7980    89.3930 p5         1 XB3       1.474800
     67 P2          -3.6970    66.9650    86.6800 p5         1 XB3       1.505800
     68 H1          -5.7840    55.7350    87.1070 ha         1 XB3       0.117500
     69 H2          -8.2380    59.3880    80.1180 ha         1 XB3       0.123000
     70 H3          -9.7500    56.5350    84.9100 hc         1 XB3       0.076700
     71 H4          -6.0300    61.7000    78.8050 hc         1 XB3       0.036367
     72 H5          -5.1910    60.1680    78.6830 hc         1 XB3       0.036367
     73 H6          -6.9270    60.2410    78.3910 hc         1 XB3       0.036367
     74 H7          -8.4680    57.2490    81.1010 h2         1 XB3       0.074700
     75 H8         -10.7290    56.2860    82.7990 hc         1 XB3       0.062700
     76 H9          -9.2170    55.4800    82.4370 hc         1 XB3       0.062700
     77 H10         -8.0920    56.2380    86.4980 ha         1 XB3       0.118000
     78 H11        -11.9210    58.9780    85.8520 hn         1 XB3       0.329500
     79 H12         -5.0710    60.9610    83.5130 ha         1 XB3       0.145000
     80 H14         -4.4720    62.4860    80.5140 hc         1 XB3       0.044033
     81 H15         -3.6550    61.8460    81.9370 hc         1 XB3       0.044033
     82 H16         -3.5930    60.9740    80.4080 hc         1 XB3       0.044033
     83 H17         -2.7890    57.0790    84.1250 ha         1 XB3       0.115000
     84 H18         -0.4560    56.6020    84.7180 ha         1 XB3       0.110000
     85 H19          0.0740    54.8780    86.4160 ha         1 XB3       0.108000
     86 H20         -1.7670    53.6290    87.5050 ha         1 XB3       0.110000
     87 H21         -4.1000    54.0840    86.8970 ha         1 XB3       0.115000
     88 H22         -4.6350    56.1050    82.9960 ha         1 XB3       0.117500
     89 H23         -6.9170    56.6030    82.3900 ha         1 XB3       0.118000
     90 H25         -6.2590    59.1890    86.3450 h1         1 XB3       0.064700
     91 H26         -5.2060    59.8790    85.1360 h1         1 XB3       0.064700
     92 H27         -7.1780    61.2240    87.0000 h1         1 XB3       0.064700
     93 H28         -4.3670    61.9700    86.0980 h1         1 XB3       0.037700
     94 H29         -6.0630    62.9410    88.4410 h1         1 XB3       0.057700
     95 H30         -3.6630    62.8220    88.9680 h1         1 XB3       0.021700
     96 H31         -3.2710    63.7440    87.5170 h1         1 XB3       0.021700
     97 H32         -5.4540    68.3480    89.1560 h1         1 XB3       0.055200
     98 H33         -4.3390    69.2130    88.1050 h1         1 XB3       0.055200
     99 H34         -7.2560    68.6830    87.3880 h1         1 XB3       0.087700
    100 H35         -7.5600    72.1080    87.5930 h2         1 XB3       0.102700
    101 H36         -4.2790    71.6030    89.5160 h5         1 XB3       0.093800
    102 H37         -9.2870    75.5820    89.7180 h5         1 XB3       0.032100
    103 H38         -4.6340    71.3450    87.1820 h1         1 XB3       0.063700
    104 H39         -5.3100    69.6230    85.6770 h1         1 XB3       0.114700
    105 H40         -6.1810    76.4540    92.8320 hn         1 XB3       0.498500
    106 H41         -4.9160    75.3000    92.6110 hn         1 XB3       0.498500
    107 H42        -11.0790    58.1880    81.3530 ho         1 XB3       0.476000
    108 H44         -5.2180    73.2460    86.1640 ho         1 XB3       0.494000
    109 H45         -7.5800    69.4890    85.1580 ho         1 XB3       0.508000
    110 H46         -6.6830    63.1210    85.5830 ho         1 XB3       0.572000
    111 H47         -3.7610    60.7540    87.8030 ho         1 XB3       0.443000
    112 H48         -5.1660    64.7100    86.4300 ho         1 XB3       0.609000
    113 C1          -4.2370    61.5690    81.0590 c3         1 XB3      -0.043800
    114 C28         -6.1960    59.9590    85.5810 c3         1 XB3       0.221800
@<TRIPOS>BOND
     1     1     3 ar  
     2     1    14 ar  
     3     1    44 1   
     4     2    11 ar  
     5     2    16 ar  
     6     2    68 1   
     7     3     4 ar  
     8     3    12 1   
     9     4     6 ar  
    10     4    69 1   
    11     5     9 1   
    12     5    10 1   
    13     5    26 1   
    14     5    70 1   
    15     6     7 1   
    16     6    21 ar  
    17     7    71 1   
    18     7    72 1   
    19     7    73 1   
    20     8     9 1   
    21     8    12 1   
    22     8    50 1   
    23     8    74 1   
    24     9    75 1   
    25     9    76 1   
    26    10    11 ar  
    27    10    25 ar  
    28    11    77 1   
    29    12    26 1   
    30    13    27 1   
    31    13    28 1   
    32    13    78 1   
    33    14    21 ar  
    34    14    79 1   
    35    15    28 1   
    36    15    29 2   
    37    16    17 1   
    38    16    24 ar  
    39    17    18 ar  
    40    17    23 ar  
    41    18    19 ar  
    42    18    83 1   
    43    19    20 ar  
    44    19    84 1   
    45    20    22 ar  
    46    20    85 1   
    47    21   113 1   
    48    22    23 ar  
    49    22    86 1   
    50    23    87 1   
    51    24    25 ar  
    52    24    88 1   
    53    25    89 1   
    54    26    27 1   
    55    26    29 1   
    56    27    58 2   
    57    28    59 2   
    58    29    44 1   
    59    30    31 1   
    60    30    60 1   
    61    30    92 1   
    62    30   114 1   
    63    31    32 1   
    64    31    61 1   
    65    31    93 1   
    66    32    33 1   
    67    32    62 1   
    68    32    94 1   
    69    33    63 1   
    70    33    95 1   
    71    33    96 1   
    72    34    35 1   
    73    34    54 1   
    74    34    97 1   
    75    34    98 1   
    76    35    43 1   
    77    35    55 1   
    78    35    99 1   
    79    36    42 1   
    80    36    45 1   
    81    36    55 1   
    82    36   100 1   
    83    37    45 1   
    84    37    46 2   
    85    37   101 1   
    86    38    39 ar  
    87    38    41 ar  
    88    38    46 1   
    89    39    47 1   
    90    39    48 ar  
    91    40    48 ar  
    92    40    49 ar  
    93    40   102 1   
    94    41    45 1   
    95    41    49 ar  
    96    42    43 1   
    97    42    56 1   
    98    42   103 1   
    99    43    57 1   
   100    43   104 1   
   101    44   114 1   
   102    47   105 1   
   103    47   106 1   
   104    50   107 1   
   105    51    66 1   
   106    51    67 1   
   107    52    67 1   
   108    53    67 1   
   109    54    67 1   
   110    56   108 1   
   111    57   109 1   
   112    60   110 1   
   113    61   111 1   
   114    62   112 1   
   115    63    66 1   
   116    64    66 1   
   117    65    66 1   
   118    80   113 1   
   119    81   113 1   
   120    82   113 1   
   121    90   114 1   
   122    91   114 1   
@<TRIPOS>SUBSTRUCTURE
     1 XB3         1 TEMP              0 ****  ****    0 ROOT
