@<TRIPOS>MOLECULE
XB3
  114   122     1     0     0
SMALL
No Charge or Current Charge


@<TRIPOS>ATOM
      1 C4          -7.6260    59.2710    82.7140 ca         1 XB3       0.257000
      2 C14         -5.1540    56.2240    85.8870 ca         1 XB3      -0.098500
      3 C5          -8.1780    58.4150    81.7140 ca         1 XB3       0.271000
      4 C6          -8.0680    58.7550    80.3530 ca         1 XB3      -0.136000
      5 C11         -8.3090    55.5990    83.7800 c5         1 XB3      -0.024400
      6 C7          -7.4150    59.9290    79.9440 ca         1 XB3      -0.073300
      7 C8          -7.3200    60.2540    78.4560 c3         1 XB3      -0.039800
      8 C9          -8.6470    55.9780    81.3190 c5         1 XB3       0.457500
      9 C10         -8.4020    54.8710    82.3960 c5         1 XB3      -0.127400
     10 C12         -6.8410    55.9290    84.1320 ca         1 XB3      -0.095300
     11 C13         -6.4530    55.8700    85.4860 ca         1 XB3      -0.092500
     12 N1          -8.8250    57.2100    82.0810 nh         1 XB3      -0.826400
     13 N2         -10.9720    56.7580    85.0540 ns         1 XB3      -0.503500
     14 C3          -6.9780    60.4530    82.2820 ca         1 XB3      -0.076000
     15 N3          -9.2790    58.1700    85.7030 ne         1 XB3      -0.753100
     16 C15         -4.1890    56.6540    84.9460 cp         1 XB3      -0.028000
     17 C16         -2.8130    57.0600    85.3750 cp         1 XB3      -0.032000
     18 C17         -2.1240    58.1140    84.7220 ca         1 XB3      -0.097000
     19 C18         -0.8340    58.4990    85.1260 ca         1 XB3      -0.112000
     20 C19         -0.2050    57.8380    86.1920 ca         1 XB3      -0.109000
     21 C2          -6.8650    60.7860    80.9190 ca         1 XB3      -0.077300
     22 C20         -0.8670    56.7930    86.8550 ca         1 XB3      -0.112000
     23 C21         -2.1570    56.4080    86.4510 ca         1 XB3      -0.097000
     24 C22         -4.5770    56.6960    83.5860 ca         1 XB3      -0.098500
     25 C23         -5.8740    56.3370    83.1840 ca         1 XB3      -0.092500
     26 C24         -9.1090    56.9280    83.5440 c5         1 XB3       0.059900
     27 C25        -10.6300    56.6610    83.7390 c          1 XB3       0.583000
     28 C26        -10.3290    57.3600    86.0850 c          1 XB3       0.735400
     29 C27         -8.7170    58.0480    84.5460 c2         1 XB3       0.737200
     30 C29         -7.3820    60.7510    85.9680 c3         1 XB3       0.171300
     31 C30         -6.3120    61.3490    86.9420 c3         1 XB3       0.095300
     32 C31         -6.8600    62.5460    87.7990 c3         1 XB3       0.163300
     33 C32         -5.7930    63.1230    88.7780 c3         1 XB3       0.205600
     34 C33         -5.6760    69.1960    89.2160 c3         1 XB3       0.219600
     35 C34         -5.6680    70.1080    87.9450 c5         1 XB3       0.103300
     36 C35         -4.8190    72.3040    88.1830 c5         1 XB3       0.266300
     37 C36         -4.3250    73.1580    90.5380 cc         1 XB3       0.440700
     38 C37         -5.0110    75.1910    90.3410 ca         1 XB3      -0.093600
     39 C38         -5.3680    76.5450    90.5140 ca         1 XB3       0.440900
     40 C39         -6.1270    76.5800    88.3550 ca         1 XB3       0.159900
     41 C40         -5.2530    74.6090    89.1220 ca         1 XB3       0.124500
     42 C41         -3.6190    71.3020    88.1240 c5         1 XB3       0.133300
     43 C42         -4.2770    70.2020    87.2240 c5         1 XB3       0.143300
     44 N4          -7.7320    58.9410    84.1100 nh         1 XB3      -0.678400
     45 N5          -4.8160    73.3200    89.2370 na         1 XB3      -0.281300
     46 N6          -4.4290    74.2990    91.2490 nd         1 XB3      -0.578100
     47 N7          -5.1770    77.2140    91.6820 nv         1 XB3      -1.079900
     48 N8          -5.9330    77.2470    89.5190 nb         1 XB3      -0.321000
     49 N9          -5.8140    75.2870    88.1000 nb         1 XB3      -0.201000
     50 O1          -9.8520    55.7860    80.6470 oh         1 XB3      -0.658000
     51 O10         -5.0960    66.1410    88.9600 os         1 XB3      -0.728800
     52 O11         -5.6120    67.3140    86.8110 o          1 XB3      -0.849000
     53 O12         -7.3830    65.9680    87.8140 o          1 XB3      -0.849000
     54 O13         -6.5790    68.0880    89.0430 os         1 XB3      -0.617400
     55 O14         -5.9980    71.4760    88.3240 os         1 XB3      -0.456000
     56 O15         -2.3960    71.8470    87.5850 oh         1 XB3      -0.682000
     57 O16         -4.4230    70.5940    85.8400 oh         1 XB3      -0.722000
     58 O2         -11.4500    56.3380    82.8890 o          1 XB3      -0.546000
     59 O3         -10.7150    57.2380    87.2290 o          1 XB3      -0.517000
     60 O4          -7.8870    61.8130    85.1340 oh         1 XB3      -0.767000
     61 O5          -5.8130    60.3050    87.8040 oh         1 XB3      -0.677000
     62 O6          -7.3730    63.5880    86.9240 oh         1 XB3      -0.807000
     63 O7          -6.4200    64.1450    89.5550 os         1 XB3      -0.603400
     64 O8          -6.3380    66.1100    91.2050 o          1 XB3      -0.847000
     65 O9          -4.3420    64.7300    90.8950 o          1 XB3      -0.847000
     66 P1          -5.5420    65.3140    90.2260 p5         1 XB3       1.474800
     67 P2          -6.2060    66.8410    88.0930 p5         1 XB3       1.505800
     68 H1          -4.9040    56.1890    86.9440 ha         1 XB3       0.117500
     69 H2          -8.5030    58.1010    79.6040 ha         1 XB3       0.123000
     70 H3          -8.7630    54.9870    84.5700 hc         1 XB3       0.076700
     71 H4          -7.8140    61.2050    78.2270 hc         1 XB3       0.036367
     72 H5          -6.2750    60.3290    78.1330 hc         1 XB3       0.036367
     73 H6          -7.7960    59.4830    77.8380 hc         1 XB3       0.036367
     74 H7          -7.8070    56.0340    80.6110 h2         1 XB3       0.074700
     75 H8          -9.2310    54.1540    82.4060 hc         1 XB3       0.062700
     76 H9          -7.5060    54.2810    82.1740 hc         1 XB3       0.062700
     77 H10         -7.1720    55.5680    86.2450 ha         1 XB3       0.118000
     78 H11        -11.8700    56.3680    85.2930 hn         1 XB3       0.329500
     79 H12         -6.5630    61.1420    83.0080 ha         1 XB3       0.145000
     80 H14         -6.8260    62.7480    79.9750 hc         1 XB3       0.044033
     81 H15         -5.7830    62.6280    81.3940 hc         1 XB3       0.044033
     82 H16         -5.2890    61.8690    79.8790 hc         1 XB3       0.044033
     83 H17         -2.5990    58.6480    83.9020 ha         1 XB3       0.115000
     84 H18         -0.3250    59.3120    84.6130 ha         1 XB3       0.110000
     85 H19          0.7940    58.1360    86.5050 ha         1 XB3       0.108000
     86 H20         -0.3800    56.2770    87.6800 ha         1 XB3       0.110000
     87 H21         -2.6480    55.5880    86.9690 ha         1 XB3       0.115000
     88 H22         -3.8620    57.0060    82.8280 ha         1 XB3       0.117500
     89 H23         -6.1160    56.4020    82.1300 ha         1 XB3       0.118000
     90 H25         -6.4910    58.7750    85.8070 h1         1 XB3       0.064700
     91 H26         -5.8930    59.8970    84.6280 h1         1 XB3       0.064700
     92 H27         -8.1990    60.3640    86.5910 h1         1 XB3       0.064700
     93 H28         -5.4830    61.7290    86.3280 h1         1 XB3       0.037700
     94 H29         -7.6820    62.1560    88.4160 h1         1 XB3       0.057700
     95 H30         -5.4200    62.3290    89.4370 h1         1 XB3       0.021700
     96 H31         -4.9450    63.5200    88.2030 h1         1 XB3       0.021700
     97 H32         -5.9880    69.7950    90.0830 h1         1 XB3       0.055200
     98 H33         -4.6600    68.8350    89.4240 h1         1 XB3       0.055200
     99 H34         -6.4480    69.7530    87.2580 h1         1 XB3       0.087700
    100 H35         -4.8770    72.8460    87.2300 h2         1 XB3       0.102700
    101 H36         -3.9210    72.2190    90.8990 h5         1 XB3       0.093800
    102 H37         -6.5830    77.1400    87.5410 h5         1 XB3       0.032100
    103 H38         -3.4220    70.8890    89.1230 h1         1 XB3       0.063700
    104 H39         -3.7220    69.2540    87.3010 h1         1 XB3       0.114700
    105 H40         -5.7100    78.0650    91.8350 hn         1 XB3       0.498500
    106 H41         -4.9600    76.6550    92.5030 hn         1 XB3       0.498500
    107 H42        -10.4870    56.1510    81.3050 ho         1 XB3       0.476000
    108 H44         -2.1320    72.6080    88.1520 ho         1 XB3       0.494000
    109 H45         -4.7660    69.8040    85.3600 ho         1 XB3       0.508000
    110 H46         -7.7740    62.6280    85.7230 ho         1 XB3       0.572000
    111 H47         -4.8640    60.4870    87.9820 ho         1 XB3       0.443000
    112 H48         -7.3720    64.4760    87.4400 ho         1 XB3       0.609000
    113 C1          -6.1520    62.0770    80.5210 c3         1 XB3      -0.043800
    114 C28         -6.8170    59.5620    85.1150 c3         1 XB3       0.221800
@<TRIPOS>BOND
     1     1     3 ar  
     2     1    14 ar  
     3     1    44 1   
     4     2    11 ar  
     5     2    16 ar  
     6     2    68 1   
     7     3     4 ar  
     8     3    12 1   
     9     4     6 ar  
    10     4    69 1   
    11     5     9 1   
    12     5    10 1   
    13     5    26 1   
    14     5    70 1   
    15     6     7 1   
    16     6    21 ar  
    17     7    71 1   
    18     7    72 1   
    19     7    73 1   
    20     8     9 1   
    21     8    12 1   
    22     8    50 1   
    23     8    74 1   
    24     9    75 1   
    25     9    76 1   
    26    10    11 ar  
    27    10    25 ar  
    28    11    77 1   
    29    12    26 1   
    30    13    27 1   
    31    13    28 1   
    32    13    78 1   
    33    14    21 ar  
    34    14    79 1   
    35    15    28 1   
    36    15    29 2   
    37    16    17 1   
    38    16    24 ar  
    39    17    18 ar  
    40    17    23 ar  
    41    18    19 ar  
    42    18    83 1   
    43    19    20 ar  
    44    19    84 1   
    45    20    22 ar  
    46    20    85 1   
    47    21   113 1   
    48    22    23 ar  
    49    22    86 1   
    50    23    87 1   
    51    24    25 ar  
    52    24    88 1   
    53    25    89 1   
    54    26    27 1   
    55    26    29 1   
    56    27    58 2   
    57    28    59 2   
    58    29    44 1   
    59    30    31 1   
    60    30    60 1   
    61    30    92 1   
    62    30   114 1   
    63    31    32 1   
    64    31    61 1   
    65    31    93 1   
    66    32    33 1   
    67    32    62 1   
    68    32    94 1   
    69    33    63 1   
    70    33    95 1   
    71    33    96 1   
    72    34    35 1   
    73    34    54 1   
    74    34    97 1   
    75    34    98 1   
    76    35    43 1   
    77    35    55 1   
    78    35    99 1   
    79    36    42 1   
    80    36    45 1   
    81    36    55 1   
    82    36   100 1   
    83    37    45 1   
    84    37    46 2   
    85    37   101 1   
    86    38    39 ar  
    87    38    41 ar  
    88    38    46 1   
    89    39    47 1   
    90    39    48 ar  
    91    40    48 ar  
    92    40    49 ar  
    93    40   102 1   
    94    41    45 1   
    95    41    49 ar  
    96    42    43 1   
    97    42    56 1   
    98    42   103 1   
    99    43    57 1   
   100    43   104 1   
   101    44   114 1   
   102    47   105 1   
   103    47   106 1   
   104    50   107 1   
   105    51    66 1   
   106    51    67 1   
   107    52    67 1   
   108    53    67 1   
   109    54    67 1   
   110    56   108 1   
   111    57   109 1   
   112    60   110 1   
   113    61   111 1   
   114    62   112 1   
   115    63    66 1   
   116    64    66 1   
   117    65    66 1   
   118    80   113 1   
   119    81   113 1   
   120    82   113 1   
   121    90   114 1   
   122    91   114 1   
@<TRIPOS>SUBSTRUCTURE
     1 XB3         1 TEMP              0 ****  ****    0 ROOT
