@<TRIPOS>MOLECULE
XB4
   43    45     1     0     0
SMALL
abcg2


@<TRIPOS>ATOM
      1 C11        -21.9380   -11.8890     9.9560 cc         1 XB4      -0.136400
      2 C12        -22.4680   -10.7150    10.4400 cd         1 XB4      -0.060300
      3 C13        -22.6940    -9.3640     9.8010 c          1 XB4       0.725200
      4 C10        -21.3040   -12.1350     8.6590 ca         1 XB4       0.020200
      5 C01        -24.5310   -15.4780     8.0420 c3         1 XB4      -0.095100
      6 C02        -23.3470   -14.8580     7.3380 c3         1 XB4       0.173600
      7 C04        -21.7830   -13.1200     7.7700 ca         1 XB4       0.570300
      8 C06        -20.1080   -12.7500     6.2620 ca         1 XB4       0.312900
      9 C07        -19.5720   -11.7690     7.0600 ca         1 XB4       0.072000
     10 C09        -20.1680   -11.4510     8.2690 ca         1 XB4      -0.059000
     11 C17        -22.5970   -12.1900    12.1260 ca         1 XB4      -0.060200
     12 C18        -22.8060   -12.8190    13.3590 ca         1 XB4      -0.093300
     13 C19        -23.4200   -12.1000    14.5390 c3         1 XB4      -0.006400
     14 C20        -22.4440   -12.0250    15.7130 c3         1 XB4      -0.081100
     15 C21        -24.7410   -12.7430    14.9590 c3         1 XB4      -0.081100
     16 C22        -22.4050   -14.1430    13.4370 ca         1 XB4      -0.119000
     17 C23        -21.8170   -14.8150    12.3520 ca         1 XB4      -0.161000
     18 C24        -21.6160   -14.1810    11.1440 ca         1 XB4      -0.067000
     19 C25        -22.0110   -12.8450    11.0190 ca         1 XB4      -0.069800
     20 F08        -18.4540   -11.1280     6.6800 f          1 XB4      -0.190000
     21 N05        -21.2050   -13.4120     6.6260 nb         1 XB4      -0.764000
     22 N16        -22.8620   -10.9120    11.7320 na         1 XB4      -0.196700
     23 O03        -22.8890   -13.7720     8.1380 os         1 XB4      -0.444300
     24 O14        -23.1830    -8.5030    10.5590 o          1 XB4      -0.702500
     25 O15        -22.3810    -9.2490     8.6060 o          1 XB4      -0.702500
     26 H012       -24.9030   -16.3150     7.4500 hc         1 XB4       0.040367
     27 H011       -24.2560   -15.8600     9.0250 hc         1 XB4       0.040367
     28 H013       -25.3470   -14.7660     8.1610 hc         1 XB4       0.040367
     29 H021       -23.6280   -14.5030     6.3430 h1         1 XB4       0.035200
     30 H022       -22.5480   -15.5930     7.2080 h1         1 XB4       0.035200
     31 H061       -19.6530   -13.0150     5.3140 h4         1 XB4       0.013100
     32 H091       -19.7400   -10.6940     8.9120 ha         1 XB4       0.147000
     33 H191       -23.6430   -11.0710    14.2430 hc         1 XB4       0.045700
     34 H202       -22.8690   -11.4350    16.5270 hc         1 XB4       0.028200
     35 H201       -22.2190   -13.0180    16.1060 hc         1 XB4       0.028200
     36 H203       -21.5030   -11.5610    15.4180 hc         1 XB4       0.028200
     37 H213       -25.2000   -12.1780    15.7720 hc         1 XB4       0.028200
     38 H211       -25.4480   -12.7740    14.1300 hc         1 XB4       0.028200
     39 H212       -24.5890   -13.7650    15.3110 hc         1 XB4       0.028200
     40 H221       -22.5420   -14.6830    14.3670 ha         1 XB4       0.089000
     41 H231       -21.5170   -15.8480    12.4750 ha         1 XB4       0.089000
     42 H241       -21.1500   -14.7030    10.3180 ha         1 XB4       0.104000
     43 H161       -23.2920   -10.1820    12.2760 hn         1 XB4       0.366000
@<TRIPOS>BOND
     1     1     2 2   
     2     1     4 1   
     3     1    19 1   
     4     2     3 1   
     5     2    22 1   
     6     3    24 1   
     7     3    25 1   
     8     4     7 ar  
     9     4    10 ar  
    10     5     6 1   
    11     5    26 1   
    12     5    27 1   
    13     5    28 1   
    14     6    23 1   
    15     6    29 1   
    16     6    30 1   
    17     7    21 ar  
    18     7    23 1   
    19     8     9 ar  
    20     8    21 ar  
    21     8    31 1   
    22     9    10 ar  
    23     9    20 1   
    24    10    32 1   
    25    11    12 ar  
    26    11    19 ar  
    27    11    22 1   
    28    12    13 1   
    29    12    16 ar  
    30    13    14 1   
    31    13    15 1   
    32    13    33 1   
    33    14    34 1   
    34    14    35 1   
    35    14    36 1   
    36    15    37 1   
    37    15    38 1   
    38    15    39 1   
    39    16    17 ar  
    40    16    40 1   
    41    17    18 ar  
    42    17    41 1   
    43    18    19 ar  
    44    18    42 1   
    45    22    43 1   
@<TRIPOS>SUBSTRUCTURE
     1 XB4         1 TEMP              0 ****  ****    0 ROOT
