@<TRIPOS>MOLECULE
XB4
   43    45     1     0     0
SMALL
No Charge or Current Charge


@<TRIPOS>ATOM
      1 C11        -21.8130   -11.9540    10.0250 cc         1 XB4      -0.136400
      2 C12        -22.4940   -10.7870    10.3890 cd         1 XB4      -0.060300
      3 C13        -22.7660    -9.5780     9.5360 c          1 XB4       0.725200
      4 C10        -21.2120   -12.1890     8.7120 ca         1 XB4       0.020200
      5 C01        -24.7880   -15.2840     7.9970 c3         1 XB4      -0.095100
      6 C02        -23.5410   -14.7440     7.2780 c3         1 XB4       0.173600
      7 C04        -21.7770   -13.1070     7.7860 ca         1 XB4       0.570300
      8 C06        -20.0830   -12.7030     6.2480 ca         1 XB4       0.312900
      9 C07        -19.4530   -11.7820     7.1090 ca         1 XB4       0.072000
     10 C09        -20.0220   -11.5220     8.3630 ca         1 XB4      -0.059000
     11 C17        -22.5110   -12.2130    12.1490 ca         1 XB4      -0.060200
     12 C18        -22.7130   -12.8360    13.3990 ca         1 XB4      -0.093300
     13 C19        -23.4610   -12.1420    14.5440 c3         1 XB4      -0.006400
     14 C20        -22.5470   -11.9350    15.7720 c3         1 XB4      -0.081100
     15 C21        -24.7520   -12.9040    14.9170 c3         1 XB4      -0.081100
     16 C22        -22.1940   -14.1450    13.5610 ca         1 XB4      -0.119000
     17 C23        -21.5050   -14.7920    12.5100 ca         1 XB4      -0.161000
     18 C24        -21.3210   -14.1410    11.2750 ca         1 XB4      -0.067000
     19 C25        -21.8420   -12.8490    11.1380 ca         1 XB4      -0.069800
     20 F08        -18.3110   -11.1580     6.7370 f          1 XB4      -0.190000
     21 N05        -21.2220   -13.3620     6.5720 nb         1 XB4      -0.764000
     22 N16        -22.9190   -10.9480    11.7360 na         1 XB4      -0.196700
     23 O03        -22.9350   -13.7680     8.1420 os         1 XB4      -0.444300
     24 O14        -23.3790    -8.6530    10.0510 o          1 XB4      -0.702500
     25 O15        -22.3930    -9.5470     8.3720 o          1 XB4      -0.702500
     26 H012       -25.2860   -16.0380     7.3760 hc         1 XB4       0.040367
     27 H011       -24.5120   -15.7500     8.9500 hc         1 XB4       0.040367
     28 H013       -25.5010   -14.4750     8.1940 hc         1 XB4       0.040367
     29 H021       -23.8370   -14.2920     6.3220 h1         1 XB4       0.035200
     30 H022       -22.8490   -15.5720     7.0770 h1         1 XB4       0.035200
     31 H061       -19.6590   -12.9240     5.2690 h4         1 XB4       0.013100
     32 H091       -19.5560   -10.8200     9.0480 ha         1 XB4       0.147000
     33 H191       -23.7760   -11.1420    14.2240 hc         1 XB4       0.045700
     34 H202       -23.0700   -11.3690    16.5530 hc         1 XB4       0.028200
     35 H201       -22.2330   -12.8950    16.2000 hc         1 XB4       0.028200
     36 H203       -21.6480   -11.3740    15.4910 hc         1 XB4       0.028200
     37 H213       -25.3160   -12.3580    15.6820 hc         1 XB4       0.028200
     38 H211       -25.3970   -13.0190    14.0370 hc         1 XB4       0.028200
     39 H212       -24.5240   -13.9020    15.3080 hc         1 XB4       0.028200
     40 H221       -22.3240   -14.6680    14.5060 ha         1 XB4       0.089000
     41 H231       -21.1150   -15.7960    12.6540 ha         1 XB4       0.089000
     42 H241       -20.7940   -14.6250    10.4560 ha         1 XB4       0.104000
     43 H161       -23.4410   -10.2670    12.2760 hn         1 XB4       0.366000
@<TRIPOS>BOND
     1     1     2 2   
     2     1     4 1   
     3     1    19 1   
     4     2     3 1   
     5     2    22 1   
     6     3    24 1   
     7     3    25 1   
     8     4     7 ar  
     9     4    10 ar  
    10     5     6 1   
    11     5    26 1   
    12     5    27 1   
    13     5    28 1   
    14     6    23 1   
    15     6    29 1   
    16     6    30 1   
    17     7    21 ar  
    18     7    23 1   
    19     8     9 ar  
    20     8    21 ar  
    21     8    31 1   
    22     9    10 ar  
    23     9    20 1   
    24    10    32 1   
    25    11    12 ar  
    26    11    19 ar  
    27    11    22 1   
    28    12    13 1   
    29    12    16 ar  
    30    13    14 1   
    31    13    15 1   
    32    13    33 1   
    33    14    34 1   
    34    14    35 1   
    35    14    36 1   
    36    15    37 1   
    37    15    38 1   
    38    15    39 1   
    39    16    17 ar  
    40    16    40 1   
    41    17    18 ar  
    42    17    41 1   
    43    18    19 ar  
    44    18    42 1   
    45    22    43 1   
@<TRIPOS>SUBSTRUCTURE
     1 XB4         1 TEMP              0 ****  ****    0 ROOT
