@<TRIPOS>MOLECULE
XB5
   73    76     1     0     0
SMALL
abcg2


@<TRIPOS>ATOM
      1 C21         52.5840    27.9360    -3.1190 cc         1 XB5      -0.154000
      2 C11         54.6940    38.0560     1.5180 c3         1 XB5       0.147600
      3 C12         51.4930    34.9450    -0.3150 ca         1 XB5      -0.180000
      4 C4          50.3720    37.0570    -0.2070 ca         1 XB5      -0.130000
      5 C3          49.1900    36.3990     0.0830 ca         1 XB5      -0.087000
      6 C2          49.1110    35.0100     0.1700 ca         1 XB5      -0.061300
      7 C5          51.5430    36.3310    -0.4150 ca         1 XB5       0.132100
      8 C1          47.8040    34.3420     0.4900 c3         1 XB5      -0.044800
      9 C16         51.5980    30.8690     0.8080 c3         1 XB5       0.163000
     10 C20         52.9060    29.1090    -2.3080 ca         1 XB5       0.018000
     11 C19         52.1300    29.4400    -1.1950 ca         1 XB5      -0.079000
     12 C18         52.4330    30.5460    -0.4150 ca         1 XB5      -0.104300
     13 C17         52.3430    30.5200     2.0910 c3         1 XB5      -0.102100
     14 C10         56.1760    36.2910     2.1230 c3         1 XB5       0.147600
     15 C13         50.2930    34.2970    -0.0290 ca         1 XB5      -0.112600
     16 C22         53.0800    27.5900    -4.3630 cd         1 XB5      -0.157000
     17 C26         51.6970    26.8810    -2.8190 cc         1 XB5       0.255900
     18 C27         53.9900    29.9250    -2.6270 ca         1 XB5      -0.094000
     19 C28         54.3030    31.0470    -1.8620 ca         1 XB5      -0.110500
     20 C29         55.4440    31.8960    -2.2220 cc         1 XB5       0.311500
     21 C33         58.8870    34.8930    -1.9890 c3         1 XB5      -0.113100
     22 C34         57.1730    32.8460    -3.1980 cd         1 XB5      -0.173000
     23 C35         56.2660    31.8270    -3.3640 cc         1 XB5      -0.219000
     24 C36         53.5180    31.3440    -0.7500 ca         1 XB5      -0.085000
     25 C7          53.8900    36.3540    -0.8560 c3         1 XB5       0.154600
     26 C8          54.5220    35.8960     0.4540 c3         1 XB5       0.123800
     27 N15         51.2280    32.2710     0.8360 ns         1 XB5      -0.504900
     28 N23         52.5020    26.4300    -4.7110 na         1 XB5       0.132800
     29 N25         51.6610    25.9840    -3.7840 nd         1 XB5      -0.525800
     30 N30         55.8370    32.8870    -1.4320 nd         1 XB5      -0.546800
     31 N31         56.8780    33.4460    -2.0310 na         1 XB5       0.137800
     32 N9          55.4020    36.8820     1.0510 n3         1 XB5      -0.717600
     33 O37         49.5940    32.1230    -0.7160 o          1 XB5      -0.585100
     34 H11A        55.4020    38.7550     1.9650 h1         1 XB5       0.032700
     35 H11C        54.2040    38.5730     0.6950 h1         1 XB5       0.032700
     36 H11B        53.9270    37.8250     2.2740 h1         1 XB5       0.032700
     37 H12         52.3800    34.3440    -0.4690 ha         1 XB5       0.124000
     38 H4          50.3930    38.1380    -0.2690 ha         1 XB5       0.127000
     39 H3          48.2960    36.9880     0.2510 ha         1 XB5       0.115000
     40 H1B         47.3770    33.8530    -0.3860 hc         1 XB5       0.047700
     41 H1C         47.9130    33.5800     1.2610 hc         1 XB5       0.047700
     42 H1A         47.0790    35.0720     0.8470 hc         1 XB5       0.047700
     43 H16         50.6820    30.2760     0.7700 h1         1 XB5       0.076700
     44 H19         51.2700    28.8360    -0.9320 ha         1 XB5       0.117000
     45 H17C        52.6140    29.4650     2.0910 hc         1 XB5       0.044033
     46 H17B        53.2610    31.1030     2.1840 hc         1 XB5       0.044033
     47 H17A        51.7220    30.7120     2.9660 hc         1 XB5       0.044033
     48 H24C        51.7670    25.5470    -6.4530 h1         1 XB5       0.056033
     49 H24B        53.4010    26.2180    -6.5640 h1         1 XB5       0.056033
     50 H24A        53.1300    24.6990    -5.6970 h1         1 XB5       0.056033
     51 H10B        56.8780    37.0240     2.5230 h1         1 XB5       0.032700
     52 H10A        55.5600    35.9290     2.9600 h1         1 XB5       0.032700
     53 H10C        56.7550    35.4460     1.7470 h1         1 XB5       0.032700
     54 H22         53.7810    28.0850    -5.0150 h4         1 XB5       0.152000
     55 H26         51.0940    26.7430    -1.9330 h4         1 XB5       0.039100
     56 H27         54.6070    29.6740    -3.4810 ha         1 XB5       0.109000
     57 H32A        56.8660    35.4640    -1.5220 h1         1 XB5       0.067200
     58 H32B        57.5970    34.3820    -0.3470 h1         1 XB5       0.067200
     59 H33A        59.3250    35.7220    -1.4350 hc         1 XB5       0.050033
     60 H33C        59.5570    34.0380    -1.9000 hc         1 XB5       0.050033
     61 H33B        58.8390    35.1910    -3.0370 hc         1 XB5       0.050033
     62 H34         57.9870    33.1680    -3.8260 h4         1 XB5       0.154000
     63 H35         56.2140    31.1420    -4.1930 ha         1 XB5       0.144000
     64 H36         53.7600    32.2120    -0.1480 ha         1 XB5       0.117000
     65 H7B         53.7710    35.5030    -1.5340 h1         1 XB5       0.066700
     66 H7A         54.5580    37.0600    -1.3520 h1         1 XB5       0.066700
     67 H8B         53.7400    35.5630     1.1590 h1         1 XB5       0.046700
     68 H8A         55.1160    35.0080     0.2280 h1         1 XB5       0.046700
     69 H15         51.7940    32.8980     1.3870 hn         1 XB5       0.314500
     70 C24         52.7100    25.6770    -5.9250 c3         1 XB5       0.073900
     71 C14         50.3210    32.7990    -0.0050 c          1 XB5       0.612700
     72 C32         57.5190    34.5960    -1.4130 c3         1 XB5       0.082600
     73 O6          52.6530    37.0380    -0.7090 os         1 XB5      -0.346100
@<TRIPOS>BOND
     1     1    10 1   
     2     1    16 2   
     3     1    17 1   
     4     2    32 1   
     5     2    34 1   
     6     2    35 1   
     7     2    36 1   
     8     3     7 ar  
     9     3    15 ar  
    10     3    37 1   
    11     4     5 ar  
    12     4     7 ar  
    13     4    38 1   
    14     5     6 ar  
    15     5    39 1   
    16     6     8 1   
    17     6    15 ar  
    18     7    73 1   
    19     8    40 1   
    20     8    41 1   
    21     8    42 1   
    22     9    12 1   
    23     9    13 1   
    24     9    27 1   
    25     9    43 1   
    26    10    11 ar  
    27    10    18 ar  
    28    11    12 ar  
    29    11    44 1   
    30    12    24 ar  
    31    13    45 1   
    32    13    46 1   
    33    13    47 1   
    34    14    32 1   
    35    14    51 1   
    36    14    52 1   
    37    14    53 1   
    38    15    71 1   
    39    16    28 1   
    40    16    54 1   
    41    17    29 2   
    42    17    55 1   
    43    18    19 ar  
    44    18    56 1   
    45    19    20 1   
    46    19    24 ar  
    47    20    23 1   
    48    20    30 2   
    49    21    59 1   
    50    21    60 1   
    51    21    61 1   
    52    21    72 1   
    53    22    23 2   
    54    22    31 1   
    55    22    62 1   
    56    23    63 1   
    57    24    64 1   
    58    25    26 1   
    59    25    65 1   
    60    25    66 1   
    61    25    73 1   
    62    26    32 1   
    63    26    67 1   
    64    26    68 1   
    65    27    69 1   
    66    27    71 1   
    67    28    29 1   
    68    28    70 1   
    69    30    31 1   
    70    31    72 1   
    71    33    71 2   
    72    48    70 1   
    73    49    70 1   
    74    50    70 1   
    75    57    72 1   
    76    58    72 1   
@<TRIPOS>SUBSTRUCTURE
     1 XB5         1 TEMP              0 ****  ****    0 ROOT
