@<TRIPOS>MOLECULE
XB5
   73    76     1     0     0
SMALL
No Charge or Current Charge


@<TRIPOS>ATOM
      1 C21         52.7050    27.8870    -3.5170 cc         1 XB5      -0.154000
      2 C11         54.2650    38.3660     0.8070 c3         1 XB5       0.147600
      3 C12         51.0870    35.0760    -0.1260 ca         1 XB5      -0.180000
      4 C4          50.1800    37.2590     0.4100 ca         1 XB5      -0.130000
      5 C3          49.1960    36.6510     1.2000 ca         1 XB5      -0.087000
      6 C2          49.1480    35.2500     1.3510 ca         1 XB5      -0.061300
      7 C5          51.1350    36.4800    -0.2470 ca         1 XB5       0.132100
      8 C1          48.0600    34.6830     2.2640 c3         1 XB5      -0.044800
      9 C16         51.5230    30.8470     0.3680 c3         1 XB5       0.163000
     10 C20         53.0510    29.0260    -2.6530 ca         1 XB5       0.018000
     11 C19         52.1860    29.3860    -1.6020 ca         1 XB5      -0.079000
     12 C18         52.4860    30.4680    -0.7560 ca         1 XB5      -0.104300
     13 C17         52.0570    30.4130     1.7460 c3         1 XB5      -0.102100
     14 C10         56.0350    36.7350     1.2790 c3         1 XB5       0.147600
     15 C13         50.1060    34.4300     0.6800 ca         1 XB5      -0.112600
     16 C22         53.4820    27.4650    -4.5580 cd         1 XB5      -0.157000
     17 C26         51.5910    27.0300    -3.4840 cc         1 XB5       0.255900
     18 C27         54.2300    29.7790    -2.8510 ca         1 XB5      -0.094000
     19 C28         54.5560    30.8720    -2.0160 ca         1 XB5      -0.110500
     20 C29         55.7730    31.6780    -2.2440 cc         1 XB5       0.311500
     21 C33         58.7530    34.1580    -0.3060 c3         1 XB5      -0.113100
     22 C34         57.6930    32.4020    -3.1320 cd         1 XB5      -0.173000
     23 C35         56.7470    31.4300    -3.2320 cc         1 XB5      -0.219000
     24 C36         53.6730    31.1980    -0.9630 ca         1 XB5      -0.085000
     25 C7          53.3000    36.5010    -1.4850 c3         1 XB5       0.154600
     26 C8          54.2390    36.1280    -0.2960 c3         1 XB5       0.123800
     27 N15         51.2590    32.2830     0.3410 ns         1 XB5      -0.504900
     28 N23         52.7880    26.3740    -5.0940 na         1 XB5       0.132800
     29 N25         51.6040    26.1030    -4.4210 nd         1 XB5      -0.525800
     30 N30         56.0550    32.7580    -1.5340 nd         1 XB5      -0.546800
     31 N31         57.2470    33.2080    -2.0850 na         1 XB5       0.137800
     32 N9          55.0630    37.2330     0.2790 n3         1 XB5      -0.717600
     33 O37         49.1900    32.2410     1.2440 o          1 XB5      -0.585100
     34 H11A        54.9200    39.1300     1.2470 h1         1 XB5       0.032700
     35 H11C        53.6900    38.8510     0.0080 h1         1 XB5       0.032700
     36 H11B        53.5660    38.0260     1.5830 h1         1 XB5       0.032700
     37 H12         51.8080    34.4860    -0.6780 ha         1 XB5       0.124000
     38 H4          50.2060    38.3420     0.3130 ha         1 XB5       0.127000
     39 H3          48.4680    37.2810     1.7070 ha         1 XB5       0.115000
     40 H1B         47.3370    34.0860     1.6950 hc         1 XB5       0.047700
     41 H1C         48.4900    34.0500     3.0500 hc         1 XB5       0.047700
     42 H1A         47.4950    35.4750     2.7690 hc         1 XB5       0.047700
     43 H16         50.5710    30.3250     0.1960 h1         1 XB5       0.076700
     44 H19         51.2710    28.8240    -1.4360 ha         1 XB5       0.117000
     45 H17C        52.2380    29.3310     1.7610 hc         1 XB5       0.044033
     46 H17B        52.9990    30.9230     1.9780 hc         1 XB5       0.044033
     47 H17A        51.3330    30.6490     2.5340 hc         1 XB5       0.044033
     48 H24C        52.4370    25.6080    -7.0250 h1         1 XB5       0.056033
     49 H24B        54.1530    25.9330    -6.6410 h1         1 XB5       0.056033
     50 H24A        53.3320    24.5160    -5.9230 h1         1 XB5       0.056033
     51 H10B        56.6930    37.5460     1.6190 h1         1 XB5       0.032700
     52 H10A        55.5180    36.3220     2.1560 h1         1 XB5       0.032700
     53 H10C        56.6660    35.9460     0.8510 h1         1 XB5       0.032700
     54 H22         54.4260    27.8160    -4.9590 h4         1 XB5       0.152000
     55 H26         50.7590    27.0550    -2.7940 h4         1 XB5       0.039100
     56 H27         54.8930    29.5150    -3.6660 ha         1 XB5       0.109000
     57 H32A        58.5630    34.8170    -2.3620 h1         1 XB5       0.067200
     58 H32B        57.1490    35.1750    -1.3580 h1         1 XB5       0.067200
     59 H33A        59.2280    35.0860     0.0330 hc         1 XB5       0.050033
     60 H33C        58.1210    33.7790     0.5060 hc         1 XB5       0.050033
     61 H33B        59.5390    33.4210    -0.5080 hc         1 XB5       0.050033
     62 H34         58.6040    32.5870    -3.6900 h4         1 XB5       0.154000
     63 H35         56.7450    30.6120    -3.9420 ha         1 XB5       0.144000
     64 H36         53.9080    32.0260    -0.3000 ha         1 XB5       0.117000
     65 H7B         53.0620    35.6010    -2.0650 h1         1 XB5       0.066700
     66 H7A         53.8420    37.1780    -2.1580 h1         1 XB5       0.066700
     67 H8B         53.6450    35.6570     0.4980 h1         1 XB5       0.046700
     68 H8A         54.9150    35.3480    -0.6700 h1         1 XB5       0.046700
     69 H15         51.9860    32.8860    -0.0130 hn         1 XB5       0.314500
     70 C24         53.2040    25.5570    -6.2420 c3         1 XB5       0.073900
     71 C14         50.1180    32.9030     0.8010 c          1 XB5       0.612700
     72 C32         57.9130    34.4180    -1.5730 c3         1 XB5       0.082600
     73 O6          52.0900    37.1350    -1.0030 os         1 XB5      -0.346100
@<TRIPOS>BOND
     1     1    10 1   
     2     1    16 2   
     3     1    17 1   
     4     2    32 1   
     5     2    34 1   
     6     2    35 1   
     7     2    36 1   
     8     3     7 ar  
     9     3    15 ar  
    10     3    37 1   
    11     4     5 ar  
    12     4     7 ar  
    13     4    38 1   
    14     5     6 ar  
    15     5    39 1   
    16     6     8 1   
    17     6    15 ar  
    18     7    73 1   
    19     8    40 1   
    20     8    41 1   
    21     8    42 1   
    22     9    12 1   
    23     9    13 1   
    24     9    27 1   
    25     9    43 1   
    26    10    11 ar  
    27    10    18 ar  
    28    11    12 ar  
    29    11    44 1   
    30    12    24 ar  
    31    13    45 1   
    32    13    46 1   
    33    13    47 1   
    34    14    32 1   
    35    14    51 1   
    36    14    52 1   
    37    14    53 1   
    38    15    71 1   
    39    16    28 1   
    40    16    54 1   
    41    17    29 2   
    42    17    55 1   
    43    18    19 ar  
    44    18    56 1   
    45    19    20 1   
    46    19    24 ar  
    47    20    23 1   
    48    20    30 2   
    49    21    59 1   
    50    21    60 1   
    51    21    61 1   
    52    21    72 1   
    53    22    23 2   
    54    22    31 1   
    55    22    62 1   
    56    23    63 1   
    57    24    64 1   
    58    25    26 1   
    59    25    65 1   
    60    25    66 1   
    61    25    73 1   
    62    26    32 1   
    63    26    67 1   
    64    26    68 1   
    65    27    69 1   
    66    27    71 1   
    67    28    29 1   
    68    28    70 1   
    69    30    31 1   
    70    31    72 1   
    71    33    71 2   
    72    48    70 1   
    73    49    70 1   
    74    50    70 1   
    75    57    72 1   
    76    58    72 1   
@<TRIPOS>SUBSTRUCTURE
     1 XB5         1 TEMP              0 ****  ****    0 ROOT
