@<TRIPOS>MOLECULE
XB7
   65    69     1     0     0
SMALL
abcg2


@<TRIPOS>ATOM
      1 C1          -4.1940   -14.8770   -34.4290 c3         1 XB7       0.148900
      2 C10        -11.4380   -12.8240   -25.8400 c6         1 XB7       0.227500
      3 C11        -11.7000   -12.3490   -27.2670 c6         1 XB7      -0.094900
      4 C12        -10.8240   -13.1040   -28.2530 c6         1 XB7       0.171300
      5 C13        -13.5160   -12.2440   -24.7160 cc         1 XB7       0.653700
      6 C14        -15.4830   -13.0590   -24.7530 ca         1 XB7       0.106400
      7 C15        -16.6240   -13.8310   -24.9480 ca         1 XB7      -0.071000
      8 C16        -17.8260   -13.3720   -24.4250 ca         1 XB7      -0.125000
      9 C17        -17.8990   -12.1690   -23.7210 ca         1 XB7      -0.111000
     10 C18        -16.7690   -11.3860   -23.5140 ca         1 XB7      -0.111000
     11 C19        -15.5760   -11.8530   -24.0380 ca         1 XB7      -0.085200
     12 C2          -4.9110   -14.8040   -32.1700 ca         1 XB7       0.138100
     13 C21        -13.3500    -9.1110   -24.4580 ca         1 XB7      -0.147300
     14 C22        -14.0380    -8.9060   -25.6510 ca         1 XB7      -0.072000
     15 C23        -13.5880    -7.9840   -26.5830 ca         1 XB7      -0.151500
     16 C24        -12.4390    -7.2660   -26.3060 ca         1 XB7       0.181000
     17 C25        -11.7330    -7.4410   -25.1330 ca         1 XB7      -0.151500
     18 C26        -12.1990    -8.3710   -24.2130 ca         1 XB7      -0.072000
     19 C27         -5.6170   -14.8300   -29.8660 ca         1 XB7      -0.070500
     20 C28         -4.9190   -15.4080   -30.9110 ca         1 XB7      -0.170000
     21 C3          -5.6100   -13.6150   -32.3540 ca         1 XB7      -0.170000
     22 C4          -6.3040   -13.0510   -31.2890 ca         1 XB7      -0.070500
     23 C5          -6.3250   -13.6400   -30.0310 ca         1 XB7      -0.120300
     24 C6          -7.1280   -13.0480   -28.9070 c3         1 XB7      -0.025100
     25 C7          -8.5720   -13.5500   -28.9440 c3         1 XB7       0.170800
     26 C8          -9.1390   -13.4650   -26.6010 c6         1 XB7       0.171300
     27 C9          -9.9490   -12.7350   -25.5390 c6         1 XB7      -0.094900
     28 F1         -11.9920    -6.3770   -27.2070 f          1 XB7      -0.174000
     29 N1          -9.4170   -12.9500   -27.9300 n3         1 XB7      -0.726600
     30 N3         -14.1900   -13.2740   -25.1660 nd         1 XB7      -0.646100
     31 N4         -14.2890   -11.3490   -24.0240 na         1 XB7      -0.221600
     32 O1          -4.2080   -15.4350   -33.1330 os         1 XB7      -0.342100
     33 H1          -3.5930   -15.5400   -35.0470 h1         1 XB7       0.039700
     34 H2          -5.1980   -14.8130   -34.8580 h1         1 XB7       0.039700
     35 H3          -3.7430   -13.8810   -34.4440 h1         1 XB7       0.039700
     36 H4         -11.7480   -13.8690   -25.7540 h1         1 XB7       0.086700
     37 H5         -11.4860   -11.2780   -27.3340 hc         1 XB7       0.053700
     38 H6         -12.7510   -12.4910   -27.5270 hc         1 XB7       0.053700
     39 H7         -10.9970   -12.7210   -29.2610 h1         1 XB7       0.034700
     40 H8         -11.1240   -14.1680   -28.2640 h1         1 XB7       0.034700
     41 H9         -16.5720   -14.7640   -25.4950 ha         1 XB7       0.126000
     42 H10        -18.7250   -13.9580   -24.5670 ha         1 XB7       0.111000
     43 H11        -18.8510   -11.8380   -23.3270 ha         1 XB7       0.111000
     44 H12        -16.8330   -10.4540   -22.9660 ha         1 XB7       0.112000
     45 H13        -13.0480   -10.3130   -22.7060 h1         1 XB7       0.067700
     46 H14        -14.6710    -9.6930   -22.8690 h1         1 XB7       0.067700
     47 H15        -14.9370    -9.4720   -25.8680 ha         1 XB7       0.125500
     48 H16        -14.1230    -7.8290   -27.5110 ha         1 XB7       0.136500
     49 H17        -10.8340    -6.8720   -24.9410 ha         1 XB7       0.136500
     50 H18        -11.6450    -8.5240   -23.2940 ha         1 XB7       0.125500
     51 H19         -5.6090   -15.3170   -28.8970 ha         1 XB7       0.111500
     52 H20         -4.3730   -16.3310   -30.7600 ha         1 XB7       0.121000
     53 H21         -5.6260   -13.1100   -33.3110 ha         1 XB7       0.121000
     54 H22         -6.8420   -12.1240   -31.4540 ha         1 XB7       0.111500
     55 H23         -6.6570   -13.3000   -27.9540 hc         1 XB7       0.052200
     56 H24         -7.1360   -11.9580   -28.9790 hc         1 XB7       0.052200
     57 H25         -8.9890   -13.2940   -29.9220 h1         1 XB7       0.034200
     58 H26         -8.5790   -14.6520   -28.8850 h1         1 XB7       0.034200
     59 H27         -9.3530   -14.5480   -26.5410 h1         1 XB7       0.034700
     60 H28         -8.0790   -13.3450   -26.3750 h1         1 XB7       0.034700
     61 H29         -9.7340   -13.1630   -24.5580 hc         1 XB7       0.053700
     62 H30         -9.6420   -11.6840   -25.5120 hc         1 XB7       0.053700
     63 H32        -11.8360   -11.1280   -24.7020 hn         1 XB7       0.475000
     64 N2         -12.1830   -12.0650   -24.8510 nu         1 XB7      -0.868400
     65 C20        -13.8380   -10.1100   -23.4340 c3         1 XB7       0.130900
@<TRIPOS>BOND
     1     1    32 1   
     2     1    33 1   
     3     1    34 1   
     4     1    35 1   
     5     2     3 1   
     6     2    27 1   
     7     2    36 1   
     8     2    64 1   
     9     3     4 1   
    10     3    37 1   
    11     3    38 1   
    12     4    29 1   
    13     4    39 1   
    14     4    40 1   
    15     5    30 2   
    16     5    31 1   
    17     5    64 1   
    18     6     7 ar  
    19     6    11 ar  
    20     6    30 1   
    21     7     8 ar  
    22     7    41 1   
    23     8     9 ar  
    24     8    42 1   
    25     9    10 ar  
    26     9    43 1   
    27    10    11 ar  
    28    10    44 1   
    29    11    31 1   
    30    12    20 ar  
    31    12    21 ar  
    32    12    32 1   
    33    13    14 ar  
    34    13    18 ar  
    35    13    65 1   
    36    14    15 ar  
    37    14    47 1   
    38    15    16 ar  
    39    15    48 1   
    40    16    17 ar  
    41    16    28 1   
    42    17    18 ar  
    43    17    49 1   
    44    18    50 1   
    45    19    20 ar  
    46    19    23 ar  
    47    19    51 1   
    48    20    52 1   
    49    21    22 ar  
    50    21    53 1   
    51    22    23 ar  
    52    22    54 1   
    53    23    24 1   
    54    24    25 1   
    55    24    55 1   
    56    24    56 1   
    57    25    29 1   
    58    25    57 1   
    59    25    58 1   
    60    26    27 1   
    61    26    29 1   
    62    26    59 1   
    63    26    60 1   
    64    27    61 1   
    65    27    62 1   
    66    31    65 1   
    67    45    65 1   
    68    46    65 1   
    69    63    64 1   
@<TRIPOS>SUBSTRUCTURE
     1 XB7         1 TEMP              0 ****  ****    0 ROOT
