@<TRIPOS>MOLECULE
XB7
   65    69     1     0     0
SMALL
No Charge or Current Charge


@<TRIPOS>ATOM
      1 C1          -3.8520   -14.3780   -34.4920 c3         1 XB7       0.148900
      2 C10        -11.5490   -12.7830   -25.7810 c6         1 XB7       0.227500
      3 C11        -11.7830   -12.1970   -27.1890 c6         1 XB7      -0.094900
      4 C12        -10.9260   -12.9460   -28.2330 c6         1 XB7       0.171300
      5 C13        -13.6070   -12.2160   -24.5050 cc         1 XB7       0.653700
      6 C14        -15.5380   -13.1120   -24.2920 ca         1 XB7       0.106400
      7 C15        -16.6280   -13.9940   -24.2830 ca         1 XB7      -0.071000
      8 C16        -17.8750   -13.5180   -23.8220 ca         1 XB7      -0.125000
      9 C17        -18.0120   -12.1810   -23.3790 ca         1 XB7      -0.111000
     10 C18        -16.9040   -11.3080   -23.3940 ca         1 XB7      -0.111000
     11 C19        -15.6820   -11.8170   -23.8610 ca         1 XB7      -0.085200
     12 C2          -4.9420   -14.7020   -32.3010 ca         1 XB7       0.138100
     13 C21        -13.3880    -9.1010   -24.7500 ca         1 XB7      -0.147300
     14 C22        -13.8740    -9.1170   -26.0750 ca         1 XB7      -0.072000
     15 C23        -13.1590    -8.4700   -27.0980 ca         1 XB7      -0.151500
     16 C24        -11.9600    -7.8060   -26.8000 ca         1 XB7       0.181000
     17 C25        -11.4720    -7.7800   -25.4850 ca         1 XB7      -0.151500
     18 C26        -12.1850    -8.4250   -24.4590 ca         1 XB7      -0.072000
     19 C27         -5.9910   -15.1370   -30.1430 ca         1 XB7      -0.070500
     20 C28         -5.2890   -15.5920   -31.2720 ca         1 XB7      -0.170000
     21 C3          -5.3050   -13.3410   -32.1940 ca         1 XB7      -0.170000
     22 C4          -6.0080   -12.8870   -31.0640 ca         1 XB7      -0.070500
     23 C5          -6.3530   -13.7810   -30.0330 ca         1 XB7      -0.120300
     24 C6          -7.1200   -13.2890   -28.8110 c3         1 XB7      -0.025100
     25 C7          -8.6430   -13.5100   -28.9580 c3         1 XB7       0.170800
     26 C8          -9.2250   -13.4750   -26.5330 c6         1 XB7       0.171300
     27 C9         -10.0440   -12.7430   -25.4460 c6         1 XB7      -0.094900
     28 F1         -11.2720    -7.1880   -27.7850 f          1 XB7      -0.174000
     29 N1          -9.4770   -12.9010   -27.8880 n3         1 XB7      -0.726600
     30 N3         -14.2330   -13.3820   -24.7040 nd         1 XB7      -0.646100
     31 N4         -14.4540   -11.2350   -23.9980 na         1 XB7      -0.221600
     32 O1          -4.2530   -15.2060   -33.3850 os         1 XB7      -0.342100
     33 H1          -3.3190   -14.9770   -35.2410 h1         1 XB7       0.039700
     34 H2          -4.7260   -13.9250   -34.9770 h1         1 XB7       0.039700
     35 H3          -3.1800   -13.5770   -34.1560 h1         1 XB7       0.039700
     36 H4         -11.8750   -13.8360   -25.7760 h1         1 XB7       0.086700
     37 H5         -11.5270   -11.1290   -27.2060 hc         1 XB7       0.053700
     38 H6         -12.8450   -12.2740   -27.4600 hc         1 XB7       0.053700
     39 H7         -11.0970   -12.4870   -29.2180 h1         1 XB7       0.034700
     40 H8         -11.2700   -13.9890   -28.2990 h1         1 XB7       0.034700
     41 H9         -16.5130   -15.0190   -24.6250 ha         1 XB7       0.126000
     42 H10        -18.7350   -14.1840   -23.8060 ha         1 XB7       0.111000
     43 H11        -18.9770   -11.8240   -23.0240 ha         1 XB7       0.111000
     44 H12        -17.0070   -10.2810   -23.0540 ha         1 XB7       0.112000
     45 H13        -13.5450    -9.8420   -22.7240 h1         1 XB7       0.067700
     46 H14        -15.0670    -9.2910   -23.4340 h1         1 XB7       0.067700
     47 H15        -14.8010    -9.6350   -26.3130 ha         1 XB7       0.125500
     48 H16        -13.5300    -8.4860   -28.1190 ha         1 XB7       0.136500
     49 H17        -10.5430    -7.2620   -25.2630 ha         1 XB7       0.136500
     50 H18        -11.7980    -8.4030   -23.4420 ha         1 XB7       0.125500
     51 H19         -6.2550   -15.8390   -29.3540 ha         1 XB7       0.111500
     52 H20         -5.0120   -16.6400   -31.3510 ha         1 XB7       0.121000
     53 H21         -5.0540   -12.6270   -32.9730 ha         1 XB7       0.121000
     54 H22         -6.2860   -11.8370   -30.9920 ha         1 XB7       0.111500
     55 H23         -6.7540   -13.8080   -27.9180 hc         1 XB7       0.052200
     56 H24         -6.9300   -12.2210   -28.6490 hc         1 XB7       0.052200
     57 H25         -8.9390   -13.0830   -29.9260 h1         1 XB7       0.034200
     58 H26         -8.8370   -14.5900   -29.0150 h1         1 XB7       0.034200
     59 H27         -9.4820   -14.5450   -26.5190 h1         1 XB7       0.034700
     60 H28         -8.1630   -13.3930   -26.2640 h1         1 XB7       0.034700
     61 H29         -9.8640   -13.2120   -24.4690 hc         1 XB7       0.053700
     62 H30         -9.6990   -11.7040   -25.3690 hc         1 XB7       0.053700
     63 H32        -12.0540   -11.0130   -24.7040 hn         1 XB7       0.475000
     64 N2         -12.2930   -11.9960   -24.7910 nu         1 XB7      -0.868400
     65 C20        -14.1410    -9.8370   -23.6450 c3         1 XB7       0.130900
@<TRIPOS>BOND
     1     1    32 1   
     2     1    33 1   
     3     1    34 1   
     4     1    35 1   
     5     2     3 1   
     6     2    27 1   
     7     2    36 1   
     8     2    64 1   
     9     3     4 1   
    10     3    37 1   
    11     3    38 1   
    12     4    29 1   
    13     4    39 1   
    14     4    40 1   
    15     5    30 2   
    16     5    31 1   
    17     5    64 1   
    18     6     7 ar  
    19     6    11 ar  
    20     6    30 1   
    21     7     8 ar  
    22     7    41 1   
    23     8     9 ar  
    24     8    42 1   
    25     9    10 ar  
    26     9    43 1   
    27    10    11 ar  
    28    10    44 1   
    29    11    31 1   
    30    12    20 ar  
    31    12    21 ar  
    32    12    32 1   
    33    13    14 ar  
    34    13    18 ar  
    35    13    65 1   
    36    14    15 ar  
    37    14    47 1   
    38    15    16 ar  
    39    15    48 1   
    40    16    17 ar  
    41    16    28 1   
    42    17    18 ar  
    43    17    49 1   
    44    18    50 1   
    45    19    20 ar  
    46    19    23 ar  
    47    19    51 1   
    48    20    52 1   
    49    21    22 ar  
    50    21    53 1   
    51    22    23 ar  
    52    22    54 1   
    53    23    24 1   
    54    24    25 1   
    55    24    55 1   
    56    24    56 1   
    57    25    29 1   
    58    25    57 1   
    59    25    58 1   
    60    26    27 1   
    61    26    29 1   
    62    26    59 1   
    63    26    60 1   
    64    27    61 1   
    65    27    62 1   
    66    31    65 1   
    67    45    65 1   
    68    46    65 1   
    69    63    64 1   
@<TRIPOS>SUBSTRUCTURE
     1 XB7         1 TEMP              0 ****  ****    0 ROOT
