@<TRIPOS>MOLECULE
XB8
   64    67     1     0     0
SMALL
abcg2


@<TRIPOS>ATOM
      1 C01        -14.4450   -38.2170   -21.2720 c3         1 XB8       0.145900
      2 C03        -15.3820   -40.0830   -22.4350 ca         1 XB8       0.113100
      3 C04        -14.1360   -40.6770   -22.6250 ca         1 XB8      -0.185000
      4 C05        -14.0460   -41.8750   -23.3300 ca         1 XB8      -0.081000
      5 C06        -15.1840   -42.4880   -23.8290 ca         1 XB8      -0.135000
      6 C07        -16.4450   -41.9160   -23.6360 ca         1 XB8      -0.058300
      7 C08        -17.6940   -42.6010   -24.1280 c3         1 XB8       0.232100
      8 C10        -19.7760   -43.5790   -23.3570 c3         1 XB8       0.178800
      9 C11        -20.6080   -42.4340   -22.7810 c3         1 XB8      -0.070400
     10 C12        -20.5810   -42.4260   -21.2470 c3         1 XB8      -0.022100
     11 C13        -21.3260   -41.2680   -20.6450 ca         1 XB8      -0.104300
     12 C14        -20.6690   -40.1220   -20.1930 ca         1 XB8      -0.075000
     13 C15        -21.3660   -39.0450   -19.6570 ca         1 XB8      -0.123000
     14 C16        -22.7520   -39.0890   -19.5630 ca         1 XB8      -0.094000
     15 C17        -23.4390   -40.2160   -20.0050 ca         1 XB8      -0.152000
     16 C18        -22.7110   -41.2680   -20.5300 ca         1 XB8       0.156000
     17 C20        -17.6160   -44.6130   -22.7710 cy         1 XB8       0.169500
     18 C21        -18.0230   -45.4640   -21.5480 cy         1 XB8      -0.107900
     19 C22        -17.5770   -46.7210   -22.3390 cy         1 XB8      -0.092400
     20 C23        -17.6860   -45.9020   -23.6510 cy         1 XB8      -0.107900
     21 C24        -16.5330   -40.7040   -22.9530 ca         1 XB8       0.084100
     22 C26        -18.0160   -39.0350   -23.7140 c3         1 XB8       0.204900
     23 C27        -19.2770   -38.3290   -23.3220 ca         1 XB8      -0.090300
     24 C28        -20.5060   -38.7240   -23.8490 ca         1 XB8      -0.086500
     25 C29        -21.6790   -38.0800   -23.4690 ca         1 XB8      -0.115000
     26 C30        -21.6300   -37.0290   -22.5600 ca         1 XB8      -0.098000
     27 C31        -20.4070   -36.6240   -22.0330 ca         1 XB8      -0.115000
     28 C32        -19.2380   -37.2730   -22.4110 ca         1 XB8      -0.086500
     29 F19        -23.3970   -42.3710   -20.9470 f          1 XB8      -0.194000
     30 N09        -18.3480   -43.4040   -23.0860 n3         1 XB8      -0.722600
     31 O02        -15.5850   -38.9170   -21.7670 os         1 XB8      -0.339100
     32 O25        -17.7570   -40.1020   -22.7640 os         1 XB8      -0.346100
     33 H1         -14.8320   -37.3140   -20.8050 h1         1 XB8       0.042033
     34 H2         -13.9100   -38.8130   -20.5290 h1         1 XB8       0.042033
     35 H3         -13.7650   -37.9490   -22.0840 h1         1 XB8       0.042033
     36 H4         -13.2420   -40.2140   -22.2350 ha         1 XB8       0.117000
     37 H5         -13.0740   -42.3260   -23.4830 ha         1 XB8       0.114000
     38 H6         -15.1070   -43.4190   -24.3760 ha         1 XB8       0.115000
     39 H7         -18.4090   -41.8510   -24.4590 h1         1 XB8       0.039700
     40 H8         -17.4450   -43.2190   -25.0040 h1         1 XB8       0.039700
     41 H9         -19.9650   -43.6710   -24.4360 h1         1 XB8       0.031700
     42 H10        -20.1130   -44.5130   -22.9060 h1         1 XB8       0.031700
     43 H11        -20.2280   -41.4810   -23.1510 hc         1 XB8       0.047200
     44 H12        -21.6390   -42.5280   -23.1340 hc         1 XB8       0.047200
     45 H13        -20.9990   -43.3680   -20.8810 hc         1 XB8       0.058700
     46 H14        -19.5420   -42.3840   -20.9190 hc         1 XB8       0.058700
     47 H15        -19.5900   -40.0800   -20.2740 ha         1 XB8       0.132000
     48 H16        -20.8270   -38.1680   -19.3250 ha         1 XB8       0.115000
     49 H17        -23.3030   -38.2520   -19.1530 ha         1 XB8       0.111000
     50 H18        -24.5170   -40.2860   -19.9440 ha         1 XB8       0.126000
     51 H19        -16.5700   -44.3330   -22.6560 h1         1 XB8       0.065700
     52 H20        -17.5240   -45.2420   -20.6040 hc         1 XB8       0.050950
     53 H21        -19.1010   -45.4620   -21.3860 hc         1 XB8       0.050950
     54 H22        -18.2030   -47.6080   -22.2530 hc         1 XB8       0.048200
     55 H23        -16.5450   -46.9940   -22.1170 hc         1 XB8       0.048200
     56 H24        -18.6660   -46.0210   -24.1140 hc         1 XB8       0.050950
     57 H25        -16.9130   -46.0420   -24.4070 hc         1 XB8       0.050950
     58 H26        -18.1080   -39.4760   -24.7100 h1         1 XB8       0.038700
     59 H27        -17.1690   -38.3470   -23.7090 h1         1 XB8       0.038700
     60 H28        -20.5420   -39.5400   -24.5610 ha         1 XB8       0.113500
     61 H29        -22.6280   -38.3980   -23.8810 ha         1 XB8       0.112000
     62 H30        -22.5420   -36.5280   -22.2590 ha         1 XB8       0.111000
     63 H31        -20.3660   -35.8070   -21.3230 ha         1 XB8       0.112000
     64 H32        -18.2850   -36.9600   -22.0010 ha         1 XB8       0.113500
@<TRIPOS>BOND
     1     1    31 1   
     2     1    33 1   
     3     1    34 1   
     4     1    35 1   
     5     2     3 ar  
     6     2    21 ar  
     7     2    31 1   
     8     3     4 ar  
     9     3    36 1   
    10     4     5 ar  
    11     4    37 1   
    12     5     6 ar  
    13     5    38 1   
    14     6     7 1   
    15     6    21 ar  
    16     7    30 1   
    17     7    39 1   
    18     7    40 1   
    19     8     9 1   
    20     8    30 1   
    21     8    41 1   
    22     8    42 1   
    23     9    10 1   
    24     9    43 1   
    25     9    44 1   
    26    10    11 1   
    27    10    45 1   
    28    10    46 1   
    29    11    12 ar  
    30    11    16 ar  
    31    12    13 ar  
    32    12    47 1   
    33    13    14 ar  
    34    13    48 1   
    35    14    15 ar  
    36    14    49 1   
    37    15    16 ar  
    38    15    50 1   
    39    16    29 1   
    40    17    18 1   
    41    17    20 1   
    42    17    30 1   
    43    17    51 1   
    44    18    19 1   
    45    18    52 1   
    46    18    53 1   
    47    19    20 1   
    48    19    54 1   
    49    19    55 1   
    50    20    56 1   
    51    20    57 1   
    52    21    32 1   
    53    22    23 1   
    54    22    32 1   
    55    22    58 1   
    56    22    59 1   
    57    23    24 ar  
    58    23    28 ar  
    59    24    25 ar  
    60    24    60 1   
    61    25    26 ar  
    62    25    61 1   
    63    26    27 ar  
    64    26    62 1   
    65    27    28 ar  
    66    27    63 1   
    67    28    64 1   
@<TRIPOS>SUBSTRUCTURE
     1 XB8         1 TEMP              0 ****  ****    0 ROOT
