@<TRIPOS>MOLECULE
XB8
   64    67     1     0     0
SMALL
No Charge or Current Charge


@<TRIPOS>ATOM
      1 C01        -13.7650   -38.3150   -21.6900 c3         1 XB8       0.145900
      2 C03        -15.1290   -40.1250   -22.7060 ca         1 XB8       0.113100
      3 C04        -13.9650   -40.8580   -23.0380 ca         1 XB8      -0.185000
      4 C05        -14.0610   -42.0980   -23.6820 ca         1 XB8      -0.081000
      5 C06        -15.3170   -42.6330   -23.9890 ca         1 XB8      -0.135000
      6 C07        -16.4960   -41.9400   -23.6520 ca         1 XB8      -0.058300
      7 C08        -17.8500   -42.5590   -24.0150 c3         1 XB8       0.232100
      8 C10        -19.8970   -43.6310   -23.1490 c3         1 XB8       0.178800
      9 C11        -20.7390   -42.4400   -22.6370 c3         1 XB8      -0.070400
     10 C12        -20.6230   -42.2370   -21.1080 c3         1 XB8      -0.022100
     11 C13        -21.4830   -41.0890   -20.5870 ca         1 XB8      -0.104300
     12 C14        -20.8710   -39.8880   -20.1720 ca         1 XB8      -0.075000
     13 C15        -21.6490   -38.8330   -19.6630 ca         1 XB8      -0.123000
     14 C16        -23.0450   -38.9600   -19.5750 ca         1 XB8      -0.094000
     15 C17        -23.6630   -40.1520   -19.9880 ca         1 XB8      -0.152000
     16 C18        -22.8860   -41.2110   -20.4860 ca         1 XB8       0.156000
     17 C20        -17.6210   -44.6770   -22.6940 cy         1 XB8       0.169500
     18 C21        -18.0710   -45.6890   -21.5820 cy         1 XB8      -0.107900
     19 C22        -17.3480   -46.7720   -22.4540 cy         1 XB8      -0.092400
     20 C23        -17.7410   -45.8830   -23.6840 cy         1 XB8      -0.107900
     21 C24        -16.4130   -40.6660   -23.0330 ca         1 XB8       0.084100
     22 C26        -17.7250   -38.5690   -22.7100 c3         1 XB8       0.204900
     23 C27        -19.1900   -38.1630   -22.8530 ca         1 XB8      -0.090300
     24 C28        -20.0140   -38.7660   -23.8260 ca         1 XB8      -0.086500
     25 C29        -21.3610   -38.3860   -23.9530 ca         1 XB8      -0.115000
     26 C30        -21.8910   -37.3860   -23.1210 ca         1 XB8      -0.098000
     27 C31        -21.0710   -36.7650   -22.1640 ca         1 XB8      -0.115000
     28 C32        -19.7270   -37.1540   -22.0290 ca         1 XB8      -0.086500
     29 F19        -23.5030   -42.3570   -20.8570 f          1 XB8      -0.194000
     30 N09        -18.4280   -43.4530   -22.9700 n3         1 XB8      -0.722600
     31 O02        -15.0260   -38.9080   -22.0520 os         1 XB8      -0.339100
     32 O25        -17.6120   -40.0020   -22.7910 os         1 XB8      -0.346100
     33 H1         -13.9290   -37.3550   -21.1850 h1         1 XB8       0.042033
     34 H2         -13.2090   -38.9670   -21.0050 h1         1 XB8       0.042033
     35 H3         -13.1510   -38.1290   -22.5800 h1         1 XB8       0.042033
     36 H4         -12.9730   -40.4810   -22.8080 ha         1 XB8       0.117000
     37 H5         -13.1580   -42.6490   -23.9410 ha         1 XB8       0.114000
     38 H6         -15.3760   -43.5970   -24.4890 ha         1 XB8       0.115000
     39 H7         -18.5450   -41.7440   -24.2540 h1         1 XB8       0.039700
     40 H8         -17.7330   -43.1240   -24.9500 h1         1 XB8       0.039700
     41 H9         -20.1240   -43.8000   -24.2110 h1         1 XB8       0.031700
     42 H10        -20.2590   -44.5180   -22.6180 h1         1 XB8       0.031700
     43 H11        -20.4470   -41.5180   -23.1500 hc         1 XB8       0.047200
     44 H12        -21.7870   -42.6230   -22.8990 hc         1 XB8       0.047200
     45 H13        -20.9050   -43.1690   -20.6020 hc         1 XB8       0.058700
     46 H14        -19.5700   -42.0650   -20.8520 hc         1 XB8       0.058700
     47 H15        -19.7920   -39.7720   -20.2410 ha         1 XB8       0.132000
     48 H16        -21.1680   -37.9120   -19.3420 ha         1 XB8       0.115000
     49 H17        -23.6440   -38.1400   -19.1870 ha         1 XB8       0.111000
     50 H18        -24.7420   -40.2600   -19.9170 ha         1 XB8       0.126000
     51 H19        -16.5720   -44.4030   -22.5250 h1         1 XB8       0.065700
     52 H20        -17.6450   -45.5160   -20.5880 hc         1 XB8       0.050950
     53 H21        -19.1460   -45.8580   -21.4690 hc         1 XB8       0.050950
     54 H22        -17.7840   -47.7770   -22.4300 hc         1 XB8       0.048200
     55 H23        -16.2680   -46.8540   -22.2780 hc         1 XB8       0.048200
     56 H24        -18.7480   -46.0680   -24.0750 hc         1 XB8       0.050950
     57 H25        -17.0350   -45.8830   -24.5210 hc         1 XB8       0.050950
     58 H26        -17.1510   -38.0920   -23.5150 h1         1 XB8       0.038700
     59 H27        -17.3450   -38.2050   -21.7470 h1         1 XB8       0.038700
     60 H28        -19.6110   -39.5330   -24.4840 ha         1 XB8       0.113500
     61 H29        -21.9920   -38.8630   -24.7000 ha         1 XB8       0.112000
     62 H30        -22.9330   -37.0910   -23.2200 ha         1 XB8       0.111000
     63 H31        -21.4800   -35.9880   -21.5220 ha         1 XB8       0.112000
     64 H32        -19.1030   -36.6690   -21.2810 ha         1 XB8       0.113500
@<TRIPOS>BOND
     1     1    31 1   
     2     1    33 1   
     3     1    34 1   
     4     1    35 1   
     5     2     3 ar  
     6     2    21 ar  
     7     2    31 1   
     8     3     4 ar  
     9     3    36 1   
    10     4     5 ar  
    11     4    37 1   
    12     5     6 ar  
    13     5    38 1   
    14     6     7 1   
    15     6    21 ar  
    16     7    30 1   
    17     7    39 1   
    18     7    40 1   
    19     8     9 1   
    20     8    30 1   
    21     8    41 1   
    22     8    42 1   
    23     9    10 1   
    24     9    43 1   
    25     9    44 1   
    26    10    11 1   
    27    10    45 1   
    28    10    46 1   
    29    11    12 ar  
    30    11    16 ar  
    31    12    13 ar  
    32    12    47 1   
    33    13    14 ar  
    34    13    48 1   
    35    14    15 ar  
    36    14    49 1   
    37    15    16 ar  
    38    15    50 1   
    39    16    29 1   
    40    17    18 1   
    41    17    20 1   
    42    17    30 1   
    43    17    51 1   
    44    18    19 1   
    45    18    52 1   
    46    18    53 1   
    47    19    20 1   
    48    19    54 1   
    49    19    55 1   
    50    20    56 1   
    51    20    57 1   
    52    21    32 1   
    53    22    23 1   
    54    22    32 1   
    55    22    58 1   
    56    22    59 1   
    57    23    24 ar  
    58    23    28 ar  
    59    24    25 ar  
    60    24    60 1   
    61    25    26 ar  
    62    25    61 1   
    63    26    27 ar  
    64    26    62 1   
    65    27    28 ar  
    66    27    63 1   
    67    28    64 1   
@<TRIPOS>SUBSTRUCTURE
     1 XB8         1 TEMP              0 ****  ****    0 ROOT
