@<TRIPOS>MOLECULE
XBB
   17    17     1     0     0
SMALL
No Charge or Current Charge


@<TRIPOS>ATOM
      1 C2           0.1810     0.0270    -1.8720 c2         1 XBB       0.412200
      2 N1           1.2980    -0.0760    -1.2240 n2         1 XBB      -0.576900
      3 C3          -1.2030     0.1160    -1.2360 c6         1 XBB      -0.174700
      4 C6           1.3190    -0.1380     0.2620 c6         1 XBB       0.090800
      5 C5          -0.0000     0.3020     0.9700 c6         1 XBB       0.136500
      6 C4          -1.2130    -0.3200     0.2480 c6         1 XBB      -0.075400
      7 N7          -0.0050    -0.0590     2.4040 n8         1 XBB      -0.995200
      8 HC2          0.2050     0.0660    -2.9580 h4         1 XBB       0.013800
      9 HC31        -1.9120    -0.4940    -1.8110 hc         1 XBB       0.056700
     10 HC32        -1.5530     1.1540    -1.3160 hc         1 XBB       0.056700
     11 HC61         2.1420     0.4940     0.6250 h1         1 XBB       0.068200
     12 HC62         1.5570    -1.1730     0.5500 h1         1 XBB       0.068200
     13 HC5         -0.0850     1.3980     0.9130 h1         1 XBB       0.019700
     14 HC41        -1.1640    -1.4160     0.3130 hc         1 XBB       0.053200
     15 HC42        -2.1540    -0.0130     0.7250 hc         1 XBB       0.053200
     16 HN71         0.7200     0.4870     2.8870 hn         1 XBB       0.395500
     17 HN72        -0.8770     0.2810     2.8270 hn         1 XBB       0.395500
@<TRIPOS>BOND
     1     1     2 2   
     2     1     3 1   
     3     1     8 1   
     4     2     4 1   
     5     3     6 1   
     6     3     9 1   
     7     3    10 1   
     8     4     5 1   
     9     4    11 1   
    10     4    12 1   
    11     5     6 1   
    12     5     7 1   
    13     5    13 1   
    14     6    14 1   
    15     6    15 1   
    16     7    16 1   
    17     7    17 1   
@<TRIPOS>SUBSTRUCTURE
     1 XBB         1 TEMP              0 ****  ****    0 ROOT
