@<TRIPOS>MOLECULE
XBB
   17    17     1     0     0
SMALL
abcg2


@<TRIPOS>ATOM
      1 C2           0.1820     0.0650    -1.7990 c2         1 XBB       0.412200
      2 N1           1.2760    -0.0430    -1.1740 n2         1 XBB      -0.576900
      3 C3          -1.1990     0.0950    -1.2160 c6         1 XBB      -0.174700
      4 C6           1.2590    -0.1370     0.2730 c6         1 XBB       0.090800
      5 C5          -0.0220     0.3320     0.9530 c6         1 XBB       0.136500
      6 C4          -1.2080    -0.3080     0.2510 c6         1 XBB      -0.075400
      7 N7           0.0140    -0.0480     2.3560 n8         1 XBB      -0.995200
      8 HC2          0.2440     0.1440    -2.8850 h4         1 XBB       0.013800
      9 HC31        -1.8430    -0.5540    -1.8140 hc         1 XBB       0.056700
     10 HC32        -1.5980     1.1060    -1.3500 hc         1 XBB       0.056700
     11 HC61         2.1150     0.4300     0.6520 h1         1 XBB       0.068200
     12 HC62         1.4480    -1.1800     0.5490 h1         1 XBB       0.068200
     13 HC5         -0.0990     1.4230     0.8110 h1         1 XBB       0.019700
     14 HC41        -1.1330    -1.3960     0.3460 hc         1 XBB       0.053200
     15 HC42        -2.1480    -0.0090     0.7220 hc         1 XBB       0.053200
     16 HN71         0.7880     0.4180     2.8160 hn         1 XBB       0.395500
     17 HN72        -0.8200     0.2970     2.8180 hn         1 XBB       0.395500
@<TRIPOS>BOND
     1     1     2 2   
     2     1     3 1   
     3     1     8 1   
     4     2     4 1   
     5     3     6 1   
     6     3     9 1   
     7     3    10 1   
     8     4     5 1   
     9     4    11 1   
    10     4    12 1   
    11     5     6 1   
    12     5     7 1   
    13     5    13 1   
    14     6    14 1   
    15     6    15 1   
    16     7    16 1   
    17     7    17 1   
@<TRIPOS>SUBSTRUCTURE
     1 XBB         1 TEMP              0 ****  ****    0 ROOT
