@<TRIPOS>MOLECULE
XBD
   66    70     1     0     0
SMALL
abcg2


@<TRIPOS>ATOM
      1 N1         -11.5150    -6.1000    10.8290 nb         1 XBD      -0.265000
      2 C7         -10.8300    -2.5320    11.7980 ca         1 XBD      -0.052000
      3 C8         -11.2380    -1.8350    12.9280 ca         1 XBD      -0.209000
      4 N2          -9.8790    -4.4830    10.7150 nu         1 XBD      -0.924900
      5 C9         -11.1830    -2.4430    14.1850 ca         1 XBD       0.346000
      6 O1          -9.6800    -5.6470    13.1590 os         1 XBD      -0.325100
      7 C1         -10.7380   -10.2440     8.9220 c3         1 XBD       0.034000
      8 C5         -10.4390    -5.6060    10.2190 ca         1 XBD       0.421900
      9 C6         -10.3200    -3.8140    11.8720 ca         1 XBD       0.210000
     10 N3         -11.6590    -1.8200    15.3320 nh         1 XBD      -0.794400
     11 C4         -12.0110    -7.2310    10.3770 ca         1 XBD       0.390900
     12 C3         -11.4230    -7.9210     9.3150 ca         1 XBD      -0.145400
     13 C2         -10.4300   -10.8120    10.2930 c3         1 XBD       0.280000
     14 N4         -12.3140    -0.2700    17.6380 n3         1 XBD      -0.712600
     15 N          -11.7840    -9.2430     8.9730 n          1 XBD      -0.293000
     16 C          -13.0660    -9.6300     8.7080 c          1 XBD       0.601600
     17 O          -13.3290   -10.7520     8.3160 o          1 XBD      -0.539000
     18 C10        -12.2990    -0.5260    15.2020 c6         1 XBD       0.201300
     19 C11        -13.1210    -0.2140    16.4390 c6         1 XBD       0.155300
     20 C12        -13.0800     0.0840    18.8110 c3         1 XBD       0.151100
     21 C13        -11.7190    -1.5830    17.7650 c6         1 XBD       0.155300
     22 C14        -10.8700    -1.9080    16.5520 c6         1 XBD       0.201300
     23 C15        -10.6620    -3.7470    14.2650 ca         1 XBD      -0.250000
     24 C16        -10.2160    -4.4180    13.1370 ca         1 XBD       0.186100
     25 C17         -9.5820    -6.3320    14.3900 c3         1 XBD       0.146900
     26 C18        -10.3780    -7.2610     8.6880 ca         1 XBD       0.155900
     27 C19        -13.4680    -7.2670    12.3070 c3         1 XBD       0.198100
     28 C20        -14.2600    -7.8320    10.0520 ca         1 XBD       0.316000
     29 C21        -14.1610    -8.6430     8.9140 ca         1 XBD      -0.160600
     30 C22        -15.2190    -8.6880     8.0070 ca         1 XBD      -0.043000
     31 C23        -16.3680    -7.9480     8.2090 ca         1 XBD      -0.135000
     32 C24        -16.4830    -7.1840     9.3610 ca         1 XBD      -0.069000
     33 C25        -15.4420    -7.1240    10.2720 ca         1 XBD      -0.156000
     34 F          -11.4920   -11.3930    10.8600 f          1 XBD      -0.113000
     35 F1          -9.4680   -11.7380    10.2030 f          1 XBD      -0.113000
     36 F2         -10.0030    -9.8750    11.1490 f          1 XBD      -0.113000
     37 N5          -9.8800    -6.1160     9.1170 nb         1 XBD      -0.251000
     38 N6         -13.1800    -7.7160    10.9540 na         1 XBD      -0.779100
     39 H1         -10.9000    -2.0540    10.8280 ha         1 XBD       0.117000
     40 H2         -11.5940    -0.8230    12.8050 ha         1 XBD       0.118000
     41 H3          -9.1310    -4.0810    10.1710 hn         1 XBD       0.518000
     42 H4         -11.0370   -11.0570     8.2630 h1         1 XBD       0.093700
     43 H5          -9.8210    -9.8210     8.5130 h1         1 XBD       0.093700
     44 H7         -11.5640     0.2750    15.0340 h1         1 XBD       0.045950
     45 H8         -12.9750    -0.5370    14.3470 h1         1 XBD       0.045950
     46 H9         -13.5400     0.7890    16.3320 h1         1 XBD       0.040200
     47 H10        -13.9720    -0.9170    16.4880 h1         1 XBD       0.040200
     48 H11        -12.4390     0.0710    19.6940 h1         1 XBD       0.032367
     49 H12        -13.4830     1.0930    18.7060 h1         1 XBD       0.032367
     50 H13        -13.9240    -0.5980    18.9980 h1         1 XBD       0.032367
     51 H14        -12.4850    -2.3680    17.8920 h1         1 XBD       0.040200
     52 H15        -11.0830    -1.6060    18.6530 h1         1 XBD       0.040200
     53 H16        -10.4670    -2.9100    16.6770 h1         1 XBD       0.045950
     54 H17        -10.0160    -1.2170    16.5100 h1         1 XBD       0.045950
     55 H18        -10.6270    -4.2450    15.2230 ha         1 XBD       0.121000
     56 H19         -9.1300    -7.2960    14.1690 h1         1 XBD       0.042367
     57 H20         -8.9480    -5.8030    15.1060 h1         1 XBD       0.042367
     58 H21        -10.5630    -6.5010    14.8430 h1         1 XBD       0.042367
     59 H22         -9.9040    -7.6920     7.8110 h4         1 XBD       0.025100
     60 H23        -12.5870    -7.4270    12.9240 h1         1 XBD       0.047700
     61 H24        -13.7430    -6.2130    12.3790 h1         1 XBD       0.047700
     62 H25        -14.2790    -7.8720    12.7080 h1         1 XBD       0.047700
     63 H26        -15.1380    -9.3230     7.1330 ha         1 XBD       0.131000
     64 H27        -17.1740    -7.9850     7.4890 ha         1 XBD       0.121000
     65 H28        -17.3840    -6.6150     9.5520 ha         1 XBD       0.116000
     66 H29        -15.5530    -6.5060    11.1520 ha         1 XBD       0.124000
@<TRIPOS>BOND
     1     1     8 ar  
     2     1    11 ar  
     3     2     3 ar  
     4     2     9 ar  
     5     2    39 1   
     6     3     5 ar  
     7     3    40 1   
     8     4     8 1   
     9     4     9 1   
    10     4    41 1   
    11     5    10 1   
    12     5    23 ar  
    13     6    24 1   
    14     6    25 1   
    15     7    13 1   
    16     7    15 1   
    17     7    42 1   
    18     7    43 1   
    19     8    37 ar  
    20     9    24 ar  
    21    10    18 1   
    22    10    22 1   
    23    11    12 ar  
    24    11    38 1   
    25    12    15 1   
    26    12    26 ar  
    27    13    34 1   
    28    13    35 1   
    29    13    36 1   
    30    14    19 1   
    31    14    20 1   
    32    14    21 1   
    33    15    16 1   
    34    16    17 2   
    35    16    29 1   
    36    18    19 1   
    37    18    44 1   
    38    18    45 1   
    39    19    46 1   
    40    19    47 1   
    41    20    48 1   
    42    20    49 1   
    43    20    50 1   
    44    21    22 1   
    45    21    51 1   
    46    21    52 1   
    47    22    53 1   
    48    22    54 1   
    49    23    24 ar  
    50    23    55 1   
    51    25    56 1   
    52    25    57 1   
    53    25    58 1   
    54    26    37 ar  
    55    26    59 1   
    56    27    38 1   
    57    27    60 1   
    58    27    61 1   
    59    27    62 1   
    60    28    29 ar  
    61    28    33 ar  
    62    28    38 1   
    63    29    30 ar  
    64    30    31 ar  
    65    30    63 1   
    66    31    32 ar  
    67    31    64 1   
    68    32    33 ar  
    69    32    65 1   
    70    33    66 1   
@<TRIPOS>SUBSTRUCTURE
     1 XBD         1 TEMP              0 ****  ****    0 ROOT
