@<TRIPOS>MOLECULE
XBD
   66    70     1     0     0
SMALL
No Charge or Current Charge


@<TRIPOS>ATOM
      1 N1         -11.5670    -6.3020    10.9300 nb         1 XBD      -0.265000
      2 C7         -10.5930    -2.3950    11.9580 ca         1 XBD      -0.052000
      3 C8         -10.9700    -1.6040    13.0550 ca         1 XBD      -0.209000
      4 N2         -10.0560    -4.5170    10.9420 nu         1 XBD      -0.924900
      5 C9         -11.1790    -2.1850    14.3170 ca         1 XBD       0.346000
      6 O1         -10.3860    -5.7360    13.5480 os         1 XBD      -0.325100
      7 C1         -10.6180   -10.3020     8.2960 c3         1 XBD       0.034000
      8 C5         -10.4630    -5.7380    10.4240 ca         1 XBD       0.421900
      9 C6         -10.4280    -3.7860    12.0930 ca         1 XBD       0.210000
     10 N3         -11.5590    -1.4050    15.4290 nh         1 XBD      -0.794400
     11 C4         -11.9590    -7.4740    10.4030 ca         1 XBD       0.390900
     12 C3         -11.2100    -8.1100     9.3850 ca         1 XBD      -0.145400
     13 C2         -10.2830   -11.3350     9.3960 c3         1 XBD       0.280000
     14 N4         -12.2060     0.3480    17.7580 n3         1 XBD      -0.712600
     15 N          -11.6700    -9.3130     8.7000 n          1 XBD      -0.293000
     16 C          -13.0190    -9.5710     8.2850 c          1 XBD       0.601600
     17 O          -13.2600   -10.5210     7.5470 o          1 XBD      -0.539000
     18 C10        -12.3380    -0.1360    15.2590 c6         1 XBD       0.201300
     19 C11        -13.0980     0.2800    16.5610 c6         1 XBD       0.155300
     20 C12        -12.9190     0.7830    18.9780 c3         1 XBD       0.151100
     21 C13        -11.4990    -0.9570    17.9370 c6         1 XBD       0.155300
     22 C14        -10.7070    -1.3990    16.6620 c6         1 XBD       0.201300
     23 C15        -10.9990    -3.5660    14.4730 ca         1 XBD      -0.250000
     24 C16        -10.6180    -4.3770    13.3790 ca         1 XBD       0.186100
     25 C17        -10.6140    -6.4180    14.7920 c3         1 XBD       0.146900
     26 C18        -10.1310    -7.3610     8.8620 ca         1 XBD       0.155900
     27 C19        -13.1410    -8.8010    12.1350 c3         1 XBD       0.198100
     28 C20        -14.1920    -8.0670     9.9970 ca         1 XBD       0.316000
     29 C21        -14.1810    -8.7250     8.7550 ca         1 XBD      -0.160600
     30 C22        -15.3440    -8.6590     7.9490 ca         1 XBD      -0.043000
     31 C23        -16.4680    -7.9260     8.3630 ca         1 XBD      -0.135000
     32 C24        -16.4570    -7.2570     9.5950 ca         1 XBD      -0.069000
     33 C25        -15.3180    -7.3330    10.4100 ca         1 XBD      -0.156000
     34 F          -11.3830   -12.0270     9.7710 f          1 XBD      -0.113000
     35 F1          -9.3660   -12.2230     8.9490 f          1 XBD      -0.113000
     36 F2          -9.7750   -10.7310    10.4950 f          1 XBD      -0.113000
     37 N5          -9.7420    -6.1880     9.3900 nb         1 XBD      -0.251000
     38 N6         -13.0970    -8.1160    10.8260 na         1 XBD      -0.779100
     39 H1         -10.4410    -1.9240    10.9900 ha         1 XBD       0.117000
     40 H2         -11.0890    -0.5340    12.9160 ha         1 XBD       0.118000
     41 H3          -9.4440    -4.0130    10.2990 hn         1 XBD       0.518000
     42 H4         -10.9160   -10.8410     7.3890 h1         1 XBD       0.093700
     43 H5          -9.6890    -9.7850     8.0370 h1         1 XBD       0.093700
     44 H7         -11.6590     0.6810    14.9730 h1         1 XBD       0.045950
     45 H8         -13.0750    -0.2480    14.4500 h1         1 XBD       0.045950
     46 H9         -13.5780     1.2550    16.3870 h1         1 XBD       0.040200
     47 H10        -13.9060    -0.4460    16.7360 h1         1 XBD       0.040200
     48 H11        -12.2240     0.8670    19.8240 h1         1 XBD       0.032367
     49 H12        -13.3860     1.7660    18.8250 h1         1 XBD       0.032367
     50 H13        -13.7070     0.0670    19.2490 h1         1 XBD       0.032367
     51 H14        -12.2250    -1.7460    18.1830 h1         1 XBD       0.040200
     52 H15        -10.7960    -0.8970    18.7800 h1         1 XBD       0.040200
     53 H16        -10.2820    -2.3950    16.8500 h1         1 XBD       0.045950
     54 H17         -9.8610    -0.7110    16.5200 h1         1 XBD       0.045950
     55 H18        -11.1630    -3.9960    15.4540 ha         1 XBD       0.121000
     56 H19        -10.3870    -7.4860    14.6850 h1         1 XBD       0.042367
     57 H20         -9.9730    -6.0120    15.5840 h1         1 XBD       0.042367
     58 H21        -11.6630    -6.3240    15.1010 h1         1 XBD       0.042367
     59 H22         -9.5620    -7.6950     7.9970 h4         1 XBD       0.025100
     60 H23        -12.2240    -9.3870    12.2810 h1         1 XBD       0.047700
     61 H24        -13.2240    -8.0600    12.9410 h1         1 XBD       0.047700
     62 H25        -14.0050    -9.4780    12.1810 h1         1 XBD       0.047700
     63 H26        -15.3760    -9.1740     6.9900 ha         1 XBD       0.131000
     64 H27        -17.3500    -7.8790     7.7270 ha         1 XBD       0.121000
     65 H28        -17.3260    -6.6880     9.9180 ha         1 XBD       0.116000
     66 H29        -15.3050    -6.8180    11.3670 ha         1 XBD       0.124000
@<TRIPOS>BOND
     1     1     8 ar  
     2     1    11 ar  
     3     2     3 ar  
     4     2     9 ar  
     5     2    39 1   
     6     3     5 ar  
     7     3    40 1   
     8     4     8 1   
     9     4     9 1   
    10     4    41 1   
    11     5    10 1   
    12     5    23 ar  
    13     6    24 1   
    14     6    25 1   
    15     7    13 1   
    16     7    15 1   
    17     7    42 1   
    18     7    43 1   
    19     8    37 ar  
    20     9    24 ar  
    21    10    18 1   
    22    10    22 1   
    23    11    12 ar  
    24    11    38 1   
    25    12    15 1   
    26    12    26 ar  
    27    13    34 1   
    28    13    35 1   
    29    13    36 1   
    30    14    19 1   
    31    14    20 1   
    32    14    21 1   
    33    15    16 1   
    34    16    17 2   
    35    16    29 1   
    36    18    19 1   
    37    18    44 1   
    38    18    45 1   
    39    19    46 1   
    40    19    47 1   
    41    20    48 1   
    42    20    49 1   
    43    20    50 1   
    44    21    22 1   
    45    21    51 1   
    46    21    52 1   
    47    22    53 1   
    48    22    54 1   
    49    23    24 ar  
    50    23    55 1   
    51    25    56 1   
    52    25    57 1   
    53    25    58 1   
    54    26    37 ar  
    55    26    59 1   
    56    27    38 1   
    57    27    60 1   
    58    27    61 1   
    59    27    62 1   
    60    28    29 ar  
    61    28    33 ar  
    62    28    38 1   
    63    29    30 ar  
    64    30    31 ar  
    65    30    63 1   
    66    31    32 ar  
    67    31    64 1   
    68    32    33 ar  
    69    32    65 1   
    70    33    66 1   
@<TRIPOS>SUBSTRUCTURE
     1 XBD         1 TEMP              0 ****  ****    0 ROOT
