@<TRIPOS>MOLECULE
XBE
   27    28     1     0     0
SMALL
abcg2


@<TRIPOS>ATOM
      1 C10         -4.1040    25.8330   188.8310 ca         1 XBE       0.011000
      2 C01         -7.3140    27.0760   190.2780 ca         1 XBE      -0.022000
      3 C02         -8.0370    25.9250   190.3860 ca         1 XBE      -0.251500
      4 C03         -7.4610    24.6890   190.0290 ca         1 XBE       0.027000
      5 C04         -6.1820    24.6230   189.5500 ca         1 XBE      -0.234500
      6 C05         -5.4110    25.8100   189.3800 ca         1 XBE       0.039000
      7 C06         -5.9950    27.0440   189.7710 ca         1 XBE      -0.062000
      8 C07         -5.2530    28.2410   189.6320 ca         1 XBE      -0.152000
      9 C08         -3.9970    28.2330   189.1010 ca         1 XBE      -0.054000
     10 C09         -3.4260    27.0110   188.6890 ca         1 XBE      -0.253500
     11 O12         -1.3820    25.6550   187.7740 o          1 XBE      -0.717533
     12 O13         -0.9720    27.8690   188.7790 o          1 XBE      -0.717533
     13 O14         -2.0880    27.7030   186.5960 o          1 XBE      -0.717533
     14 O16         -5.2700    23.0520   187.6820 o          1 XBE      -0.710200
     15 O17         -6.5380    22.0320   189.5280 o          1 XBE      -0.710200
     16 O18         -4.2720    22.8880   189.9290 o          1 XBE      -0.710200
     17 O20         -9.9450    27.2130   191.6250 o          1 XBE      -0.720533
     18 O21         -9.9940    24.7520   191.6510 o          1 XBE      -0.720533
     19 O22        -10.4730    25.9670   189.5650 o          1 XBE      -0.720533
     20 S11         -1.8200    27.0560   187.8920 s6         1 XBE       1.280100
     21 S15         -5.5060    23.0030   189.1340 s6         1 XBE       1.272100
     22 S19         -9.7670    25.9710   190.8580 s6         1 XBE       1.282100
     23 H1          -3.6330    24.9170   188.5110 ha         1 XBE       0.161000
     24 H2          -7.7380    28.0300   190.5650 ha         1 XBE       0.100000
     25 H3          -8.0360    23.7810   190.1480 ha         1 XBE       0.142000
     26 H4          -5.7060    29.1730   189.9480 ha         1 XBE       0.070000
     27 H5          -3.4450    29.1580   188.9990 ha         1 XBE       0.092000
@<TRIPOS>BOND
     1     1     6 ar  
     2     1    10 ar  
     3     1    23 1   
     4     2     3 ar  
     5     2     7 ar  
     6     2    24 1   
     7     3     4 ar  
     8     3    22 1   
     9     4     5 ar  
    10     4    25 1   
    11     5     6 ar  
    12     5    21 1   
    13     6     7 ar  
    14     7     8 ar  
    15     8     9 ar  
    16     8    26 1   
    17     9    10 ar  
    18     9    27 1   
    19    10    20 1   
    20    11    20 1   
    21    12    20 1   
    22    13    20 1   
    23    14    21 1   
    24    15    21 1   
    25    16    21 1   
    26    17    22 1   
    27    18    22 1   
    28    19    22 1   
@<TRIPOS>SUBSTRUCTURE
     1 XBE         1 TEMP              0 ****  ****    0 ROOT
