@<TRIPOS>MOLECULE
XBE
   27    28     1     0     0
SMALL
No Charge or Current Charge


@<TRIPOS>ATOM
      1 C10         -4.1130    25.8450   188.8070 ca         1 XBE       0.011000
      2 C01         -7.3290    27.0920   190.2300 ca         1 XBE      -0.022000
      3 C02         -8.0760    25.9110   190.3740 ca         1 XBE      -0.251500
      4 C03         -7.5070    24.6870   189.9770 ca         1 XBE       0.027000
      5 C04         -6.1940    24.6170   189.4510 ca         1 XBE      -0.234500
      6 C05         -5.4370    25.8200   189.3200 ca         1 XBE       0.039000
      7 C06         -6.0230    27.0510   189.7120 ca         1 XBE      -0.062000
      8 C07         -5.3080    28.2560   189.5860 ca         1 XBE      -0.152000
      9 C08         -4.0040    28.2610   189.0750 ca         1 XBE      -0.054000
     10 C09         -3.3920    27.0540   188.6880 ca         1 XBE      -0.253500
     11 O12         -1.1470    25.7610   188.5070 o          1 XBE      -0.717533
     12 O13         -1.0840    28.2580   188.5650 o          1 XBE      -0.717533
     13 O14         -1.9470    27.0730   186.5500 o          1 XBE      -0.717533
     14 O16         -5.2290    23.1610   187.5280 o          1 XBE      -0.710200
     15 O17         -6.6380    22.0350   189.2460 o          1 XBE      -0.710200
     16 O18         -4.3510    22.8280   189.8300 o          1 XBE      -0.710200
     17 O20         -9.7880    27.1680   191.8780 o          1 XBE      -0.720533
     18 O21         -9.8910    24.6750   191.7590 o          1 XBE      -0.720533
     19 O22        -10.5870    26.0460   189.8030 o          1 XBE      -0.720533
     20 S11         -1.6730    27.0350   187.9950 s6         1 XBE       1.280100
     21 S15         -5.5250    22.9500   188.9530 s6         1 XBE       1.272100
     22 S19         -9.8010    25.9570   191.0430 s6         1 XBE       1.282100
     23 H1          -3.6210    24.9320   188.4900 ha         1 XBE       0.161000
     24 H2          -7.7610    28.0470   190.5180 ha         1 XBE       0.100000
     25 H3          -8.1040    23.7830   190.0810 ha         1 XBE       0.142000
     26 H4          -5.7640    29.1970   189.8830 ha         1 XBE       0.070000
     27 H5          -3.4730    29.2060   188.9800 ha         1 XBE       0.092000
@<TRIPOS>BOND
     1     1     6 ar  
     2     1    10 ar  
     3     1    23 1   
     4     2     3 ar  
     5     2     7 ar  
     6     2    24 1   
     7     3     4 ar  
     8     3    22 1   
     9     4     5 ar  
    10     4    25 1   
    11     5     6 ar  
    12     5    21 1   
    13     6     7 ar  
    14     7     8 ar  
    15     8     9 ar  
    16     8    26 1   
    17     9    10 ar  
    18     9    27 1   
    19    10    20 1   
    20    11    20 1   
    21    12    20 1   
    22    13    20 1   
    23    14    21 1   
    24    15    21 1   
    25    16    21 1   
    26    17    22 1   
    27    18    22 1   
    28    19    22 1   
@<TRIPOS>SUBSTRUCTURE
     1 XBE         1 TEMP              0 ****  ****    0 ROOT
