@<TRIPOS>MOLECULE
XBF
   46    46     1     0     0
SMALL
No Charge or Current Charge


@<TRIPOS>ATOM
      1 C10        -16.6500   -18.8130    68.1290 c          1 XBF       0.607700
      2 C12        -16.0320   -19.2780    65.7150 ca         1 XBF      -0.148500
      3 C13        -15.4010   -20.0430    64.7220 ca         1 XBF       0.117100
      4 C14        -14.6760   -21.1970    65.0680 ca         1 XBF       0.024100
      5 C15        -14.5940   -21.5910    66.4180 ca         1 XBF       0.117100
      6 C16        -15.2260   -20.8250    67.4140 ca         1 XBF      -0.148500
      7 C1          -7.3390   -16.1970    68.2220 c3         1 XBF      -0.089100
      8 C2          -8.1560   -15.8420    69.4820 c3         1 XBF      -0.074400
      9 C3          -9.6900   -15.9320    69.3000 c3         1 XBF      -0.075400
     10 C4         -10.2200   -17.3660    69.0470 c3         1 XBF      -0.073400
     11 C5         -11.7530   -17.4600    68.8480 c3         1 XBF      -0.078400
     12 C6         -12.5870   -17.1300    70.1120 c3         1 XBF      -0.072400
     13 C7         -14.1180   -17.2270    69.9090 c3         1 XBF      -0.104400
     14 N1         -16.1060   -18.7360    69.4350 n          1 XBF      -0.398800
     15 C9         -16.9550   -18.2300    70.5380 c3         1 XBF       0.081300
     16 O1         -17.7310   -18.2930    67.8740 o          1 XBF      -0.582100
     17 C11        -15.9350   -19.6450    67.0770 ca         1 XBF      -0.094600
     18 O3         -14.0600   -21.9480    64.0980 oh         1 XBF      -0.556100
     19 O4         -13.9050   -22.7260    66.7500 oh         1 XBF      -0.542100
     20 H21        -16.5910   -18.3900    65.4290 ha         1 XBF       0.134000
     21 H25        -15.1810   -21.1510    68.4510 ha         1 XBF       0.134000
     22 H1          -6.2720   -16.0220    68.4000 hc         1 XBF       0.031033
     23 H2          -7.4660   -17.2520    67.9510 hc         1 XBF       0.031033
     24 H3          -7.6490   -15.5790    67.3710 hc         1 XBF       0.031033
     25 H4          -7.8480   -16.4950    70.3080 hc         1 XBF       0.036700
     26 H5          -7.9020   -14.8180    69.7810 hc         1 XBF       0.036700
     27 H7         -10.1580   -15.5280    70.2050 hc         1 XBF       0.038200
     28 H6          -9.9940   -15.2800    68.4720 hc         1 XBF       0.038200
     29 H8          -9.7420   -17.7710    68.1470 hc         1 XBF       0.038200
     30 H9          -9.9240   -18.0170    69.8780 hc         1 XBF       0.038200
     31 H11        -12.0520   -16.7930    68.0290 hc         1 XBF       0.040200
     32 H10        -11.9830   -18.4800    68.5190 hc         1 XBF       0.040200
     33 H12        -12.2880   -17.7960    70.9310 hc         1 XBF       0.040700
     34 H13        -12.3590   -16.1090    70.4390 hc         1 XBF       0.040700
     35 H14        -14.6050   -16.8240    70.8060 hc         1 XBF       0.047200
     36 H15        -14.4130   -16.5810    69.0740 hc         1 XBF       0.047200
     37 H17        -14.1070   -19.0570    68.7790 h1         1 XBF       0.055700
     38 H16        -14.3770   -19.2990    70.5060 h1         1 XBF       0.055700
     39 H19        -17.9170   -18.7580    70.5400 h1         1 XBF       0.042367
     40 H20        -16.4620   -18.3990    71.5040 h1         1 XBF       0.042367
     41 H18        -17.1340   -17.1550    70.4080 h1         1 XBF       0.042367
     42 H22        -14.9790   -20.3470    62.9080 ho         1 XBF       0.482500
     43 H23        -13.6250   -22.7030    64.5590 ho         1 XBF       0.492000
     44 H24        -13.9590   -22.8590    67.7220 ho         1 XBF       0.482500
     45 O2         -15.4880   -19.6720    63.4130 oh         1 XBF      -0.542100
     46 C8         -14.6370   -18.6620    69.6500 c3         1 XBF       0.096000
@<TRIPOS>BOND
     1     1    14 1   
     2     1    16 2   
     3     1    17 1   
     4     2     3 ar  
     5     2    17 ar  
     6     2    20 1   
     7     3     4 ar  
     8     3    45 1   
     9     4     5 ar  
    10     4    18 1   
    11     5     6 ar  
    12     5    19 1   
    13     6    17 ar  
    14     6    21 1   
    15     7     8 1   
    16     7    22 1   
    17     7    23 1   
    18     7    24 1   
    19     8     9 1   
    20     8    25 1   
    21     8    26 1   
    22     9    10 1   
    23     9    27 1   
    24     9    28 1   
    25    10    11 1   
    26    10    29 1   
    27    10    30 1   
    28    11    12 1   
    29    11    31 1   
    30    11    32 1   
    31    12    13 1   
    32    12    33 1   
    33    12    34 1   
    34    13    35 1   
    35    13    36 1   
    36    13    46 1   
    37    14    15 1   
    38    14    46 1   
    39    15    39 1   
    40    15    40 1   
    41    15    41 1   
    42    18    43 1   
    43    19    44 1   
    44    37    46 1   
    45    38    46 1   
    46    42    45 1   
@<TRIPOS>SUBSTRUCTURE
     1 XBF         1 TEMP              0 ****  ****    0 ROOT
