@<TRIPOS>MOLECULE
XBF
   46    46     1     0     0
SMALL
abcg2


@<TRIPOS>ATOM
      1 C10        -16.6440   -18.9540    68.3500 c          1 XBF       0.607700
      2 C12        -15.1590   -18.7050    66.3680 ca         1 XBF      -0.148500
      3 C13        -14.2490   -19.2190    65.4500 ca         1 XBF       0.117100
      4 C14        -13.8460   -20.5510    65.5370 ca         1 XBF       0.024100
      5 C15        -14.3540   -21.3600    66.5540 ca         1 XBF       0.117100
      6 C16        -15.2460   -20.8410    67.4820 ca         1 XBF      -0.148500
      7 C1          -7.7950   -16.7120    67.6610 c3         1 XBF      -0.089100
      8 C2          -8.6590   -15.8800    68.6000 c3         1 XBF      -0.074400
      9 C3         -10.1450   -16.2270    68.5480 c3         1 XBF      -0.075400
     10 C4         -10.4760   -17.6420    69.0130 c3         1 XBF      -0.073400
     11 C5         -11.9710   -17.9560    68.9940 c3         1 XBF      -0.078400
     12 C6         -12.7660   -17.2580    70.0970 c3         1 XBF      -0.072400
     13 C7         -14.2760   -17.3210    69.8940 c3         1 XBF      -0.104400
     14 N1         -16.2490   -18.8050    69.6320 n          1 XBF      -0.398800
     15 C9         -17.2090   -18.2770    70.5830 c3         1 XBF       0.081300
     16 O1         -17.7730   -18.6770    67.9690 o          1 XBF      -0.582100
     17 C11        -15.6400   -19.5120    67.3860 ca         1 XBF      -0.094600
     18 O3         -12.9610   -20.9970    64.6140 oh         1 XBF      -0.556100
     19 O4         -13.9160   -22.6370    66.5580 oh         1 XBF      -0.542100
     20 H21        -15.4650   -17.6690    66.2840 ha         1 XBF       0.134000
     21 H25        -15.6230   -21.4730    68.2790 ha         1 XBF       0.134000
     22 H1          -6.7570   -16.3760    67.6770 hc         1 XBF       0.031033
     23 H2          -7.7980   -17.7690    67.9300 hc         1 XBF       0.031033
     24 H3          -8.1500   -16.6340    66.6310 hc         1 XBF       0.031033
     25 H4          -8.2970   -15.9930    69.6270 hc         1 XBF       0.036700
     26 H5          -8.5370   -14.8220    68.3530 hc         1 XBF       0.036700
     27 H7         -10.6920   -15.5020    69.1560 hc         1 XBF       0.038200
     28 H6         -10.5080   -16.0950    67.5220 hc         1 XBF       0.038200
     29 H8          -9.9600   -18.3650    68.3750 hc         1 XBF       0.038200
     30 H9         -10.0820   -17.7970    70.0240 hc         1 XBF       0.038200
     31 H11        -12.3820   -17.6750    68.0170 hc         1 XBF       0.040200
     32 H10        -12.1050   -19.0380    69.0730 hc         1 XBF       0.040200
     33 H12        -12.5000   -17.6920    71.0670 hc         1 XBF       0.040700
     34 H13        -12.4770   -16.2060    70.1510 hc         1 XBF       0.040700
     35 H14        -14.7730   -16.6730    70.6210 hc         1 XBF       0.047200
     36 H15        -14.5170   -16.9200    68.9030 hc         1 XBF       0.047200
     37 H17        -14.2790   -19.4240    69.3850 h1         1 XBF       0.055700
     38 H16        -14.7460   -19.0950    71.0330 h1         1 XBF       0.055700
     39 H19        -18.1590   -18.8000    70.5030 h1         1 XBF       0.042367
     40 H20        -16.8220   -18.4270    71.5880 h1         1 XBF       0.042367
     41 H18        -17.3940   -17.2090    70.4430 h1         1 XBF       0.042367
     42 H22        -13.1710   -18.8800    63.9040 ho         1 XBF       0.482500
     43 H23        -12.7880   -21.9390    64.7270 ho         1 XBF       0.492000
     44 H24        -14.3100   -23.1370    67.2830 ho         1 XBF       0.482500
     45 O2         -13.7740   -18.4040    64.4880 oh         1 XBF      -0.542100
     46 C8         -14.8440   -18.7340    70.0060 c3         1 XBF       0.096000
@<TRIPOS>BOND
     1     1    14 1   
     2     1    16 2   
     3     1    17 1   
     4     2     3 ar  
     5     2    17 ar  
     6     2    20 1   
     7     3     4 ar  
     8     3    45 1   
     9     4     5 ar  
    10     4    18 1   
    11     5     6 ar  
    12     5    19 1   
    13     6    17 ar  
    14     6    21 1   
    15     7     8 1   
    16     7    22 1   
    17     7    23 1   
    18     7    24 1   
    19     8     9 1   
    20     8    25 1   
    21     8    26 1   
    22     9    10 1   
    23     9    27 1   
    24     9    28 1   
    25    10    11 1   
    26    10    29 1   
    27    10    30 1   
    28    11    12 1   
    29    11    31 1   
    30    11    32 1   
    31    12    13 1   
    32    12    33 1   
    33    12    34 1   
    34    13    35 1   
    35    13    36 1   
    36    13    46 1   
    37    14    15 1   
    38    14    46 1   
    39    15    39 1   
    40    15    40 1   
    41    15    41 1   
    42    18    43 1   
    43    19    44 1   
    44    37    46 1   
    45    38    46 1   
    46    42    45 1   
@<TRIPOS>SUBSTRUCTURE
     1 XBF         1 TEMP              0 ****  ****    0 ROOT
