@<TRIPOS>MOLECULE
XBG
   23    24     1     0     0
SMALL
bcc


@<TRIPOS>ATOM
      1 NBB          0.1350    -1.0260    -0.6420 n7         1 XBG      -0.772200
      2 CAZ          1.0140     0.1360    -0.6590 c5         1 XBG       0.019500
      3 CAT          2.3610    -0.1080     0.0380 c          1 XBG       0.932600
      4 OAC          2.4050    -1.0230     0.8860 o          1 XBG      -0.837300
      5 CAN         -2.3170     1.1310     0.6800 c5         1 XBG      -0.072400
      6 OAF          3.2850     0.6690    -0.2690 o          1 XBG      -0.837300
      7 CAQ          0.2160     1.2570     0.0370 c5         1 XBG      -0.088400
      8 CAY         -1.2270     0.9890    -0.3910 c5         1 XBG      -0.104700
      9 CBA         -1.2270    -0.5210    -0.7930 c5         1 XBG       0.153500
     10 CAL         -3.2430    -0.0620     0.4430 c5         1 XBG      -0.080400
     11 CAO         -2.2740    -1.1930     0.1000 c5         1 XBG      -0.087400
     12 HBB          0.2400    -1.4530     0.2710 hn         1 XBG       0.368800
     13 HBA         -1.5320    -0.6170    -1.8410 h1         1 XBG       0.042700
     14 HAZ          1.1970     0.4320    -1.6990 h1         1 XBG       0.046700
     15 HAO1        -2.7570    -2.0490    -0.3740 hc         1 XBG       0.039700
     16 HAO2        -1.7980    -1.5520     1.0190 hc         1 XBG       0.039700
     17 HAY         -1.4790     1.6010    -1.2600 hc         1 XBG       0.034700
     18 HAL1        -3.8790    -0.2900     1.3010 hc         1 XBG       0.025200
     19 HAL2        -3.9060     0.1330    -0.4050 hc         1 XBG       0.025200
     20 HAN1        -1.8740     1.0530     1.6780 hc         1 XBG       0.032700
     21 HAN2        -2.8370     2.0900     0.6400 hc         1 XBG       0.032700
     22 HAQ1         0.3130     1.1470     1.1230 hc         1 XBG       0.042700
     23 HAQ2         0.5710     2.2550    -0.2230 hc         1 XBG       0.042700
@<TRIPOS>BOND
     1     1     2 1   
     2     1     9 1   
     3     1    12 1   
     4     2     3 1   
     5     2     7 1   
     6     2    14 1   
     7     3     4 1   
     8     3     6 1   
     9     5     8 1   
    10     5    10 1   
    11     5    20 1   
    12     5    21 1   
    13     7     8 1   
    14     7    22 1   
    15     7    23 1   
    16     8     9 1   
    17     8    17 1   
    18     9    11 1   
    19     9    13 1   
    20    10    11 1   
    21    10    18 1   
    22    10    19 1   
    23    11    15 1   
    24    11    16 1   
@<TRIPOS>SUBSTRUCTURE
     1 XBG         1 TEMP              0 ****  ****    0 ROOT
