@<TRIPOS>MOLECULE
XBG
   23    24     1     0     0
SMALL
No Charge or Current Charge


@<TRIPOS>ATOM
      1 NBB          0.0940    -1.0340    -0.8090 n7         1 XBG      -0.827400
      2 CAZ          0.9870     0.1740    -0.6640 c5         1 XBG       0.019500
      3 CAT          2.4170    -0.0720    -0.0220 c          1 XBG       0.722000
      4 OAC          2.5330    -0.8770     0.8960 o          1 XBG      -0.732000
      5 CAN         -2.3760     1.2130     0.5760 c5         1 XBG      -0.072400
      6 OAF          3.3900     0.4890    -0.5080 o          1 XBG      -0.732000
      7 CAQ          0.1520     1.0940     0.2660 c5         1 XBG      -0.088400
      8 CAY         -1.2190     1.0030    -0.4630 c5         1 XBG      -0.104700
      9 CBA         -1.2870    -0.4950    -0.8880 c5         1 XBG       0.153500
     10 CAL         -3.2400    -0.0660     0.3960 c5         1 XBG      -0.080400
     11 CAO         -2.1420    -1.1470     0.2310 c5         1 XBG      -0.087400
     12 HBB          0.1720    -1.5660     0.0670 hn         1 XBG       0.424000
     13 HBA         -1.7350    -0.6140    -1.8860 h1         1 XBG       0.042700
     14 HAZ          1.1330     0.6540    -1.6430 h1         1 XBG       0.046700
     15 HAO1        -2.5520    -2.1180    -0.0700 hc         1 XBG       0.039700
     16 HAO2        -1.5850    -1.2960     1.1650 hc         1 XBG       0.039700
     17 HAY         -1.2840     1.6760    -1.3270 hc         1 XBG       0.034700
     18 HAL1        -3.8880    -0.2550     1.2590 hc         1 XBG       0.025200
     19 HAL2        -3.8810    -0.0020    -0.4910 hc         1 XBG       0.025200
     20 HAN1        -2.0190     1.2980     1.6090 hc         1 XBG       0.032700
     21 HAN2        -2.9520     2.1220     0.3680 hc         1 XBG       0.032700
     22 HAQ1         0.1290     0.7010     1.2900 hc         1 XBG       0.042700
     23 HAQ2         0.5410     2.1170     0.3090 hc         1 XBG       0.042700
@<TRIPOS>BOND
     1     1     2 1   
     2     1     9 1   
     3     1    12 1   
     4     2     3 1   
     5     2     7 1   
     6     2    14 1   
     7     3     4 1   
     8     3     6 1   
     9     5     8 1   
    10     5    10 1   
    11     5    20 1   
    12     5    21 1   
    13     7     8 1   
    14     7    22 1   
    15     7    23 1   
    16     8     9 1   
    17     8    17 1   
    18     9    11 1   
    19     9    13 1   
    20    10    11 1   
    21    10    18 1   
    22    10    19 1   
    23    11    15 1   
    24    11    16 1   
@<TRIPOS>SUBSTRUCTURE
     1 XBG         1 TEMP              0 ****  ****    0 ROOT
