@<TRIPOS>MOLECULE
XBH
   42    45     1     0     0
SMALL
No Charge or Current Charge


@<TRIPOS>ATOM
      1 N          -31.3020   -23.4750     0.9300 nb         1 XBH      -0.661000
      2 C          -32.9650   -21.6140     1.0260 c3         1 XBH       0.250700
      3 C1         -32.2120   -22.7950     1.6750 ca         1 XBH       0.283300
      4 C10        -37.6660   -27.5280     4.1060 ca         1 XBH      -0.072500
      5 C11        -38.9730   -27.9190     3.7650 ca         1 XBH      -0.115500
      6 C12        -39.2010   -28.8880     2.7710 ca         1 XBH      -0.019300
      7 C13        -38.0910   -29.4610     2.1210 ca         1 XBH      -0.115500
      8 C14        -36.7830   -29.0730     2.4580 ca         1 XBH      -0.072500
      9 C15        -40.6180   -29.2860     2.4290 cx         1 XBH      -0.098400
     10 C16        -40.9920   -30.7050     2.0620 cx         1 XBH      -0.117900
     11 C17        -41.0440   -29.6190     1.0150 cx         1 XBH      -0.117900
     12 C18        -32.4790   -23.1450     3.0110 ca         1 XBH      -0.200000
     13 C2         -30.6450   -24.5100     1.5000 ca         1 XBH       0.372900
     14 C3         -30.8630   -24.9120     2.8210 ca         1 XBH      -0.213000
     15 C4         -31.8000   -24.2180     3.5890 ca         1 XBH       0.359000
     16 C5         -32.0890   -25.9400     5.4400 c3         1 XBH       0.304100
     17 C6         -33.1390   -26.7160     4.7070 cc         1 XBH      -0.282300
     18 C7         -32.9410   -27.6520     3.7210 cd         1 XBH       0.300900
     19 C8         -35.1690   -27.6980     3.8040 cc         1 XBH       0.530900
     20 C9         -36.5470   -28.1000     3.4570 ca         1 XBH      -0.152500
     21 F          -34.3030   -21.8190     1.0230 f          1 XBH      -0.107667
     22 F1         -32.7490   -20.4580     1.6980 f          1 XBH      -0.107667
     23 F2         -32.6050   -21.3860    -0.2610 f          1 XBH      -0.107667
     24 N1         -32.0640   -24.5720     4.9090 nu         1 XBH      -0.963200
     25 N2         -34.1000   -28.2150     3.2050 nd         1 XBH      -0.648000
     26 S          -34.8340   -26.5050     5.0410 ss         1 XBH      -0.050400
     27 H6         -37.5420   -26.7750     4.8800 ha         1 XBH       0.125000
     28 H7         -39.8130   -27.4610     4.2820 ha         1 XBH       0.116500
     29 H8         -38.2320   -30.2120     1.3480 ha         1 XBH       0.116500
     30 H9         -35.9510   -29.5390     1.9330 ha         1 XBH       0.125000
     31 H10        -41.3500   -28.7460     3.0260 hc         1 XBH       0.082700
     32 H12        -41.9370   -31.0910     2.4390 hc         1 XBH       0.074950
     33 H11        -40.2000   -31.4470     1.9870 hc         1 XBH       0.074950
     34 H13        -40.2880   -29.6260     0.2350 hc         1 XBH       0.074950
     35 H14        -42.0240   -29.2750     0.6900 hc         1 XBH       0.074950
     36 H15        -33.2130   -22.5860     3.5830 ha         1 XBH       0.136000
     37 H          -29.9200   -25.0290     0.8740 h4         1 XBH       0.026100
     38 H1         -30.3020   -25.7440     3.2300 ha         1 XBH       0.129000
     39 H3         -31.1100   -26.4260     5.3190 h1         1 XBH       0.067700
     40 H4         -32.3240   -25.9320     6.5140 h1         1 XBH       0.067700
     41 H5         -31.9790   -27.9650     3.3330 h4         1 XBH       0.041100
     42 H2         -32.6720   -23.9160     5.4020 hn         1 XBH       0.488000
@<TRIPOS>BOND
     1     1     3 ar  
     2     1    13 ar  
     3     2     3 1   
     4     2    21 1   
     5     2    22 1   
     6     2    23 1   
     7     3    12 ar  
     8     4     5 ar  
     9     4    20 ar  
    10     4    27 1   
    11     5     6 ar  
    12     5    28 1   
    13     6     7 ar  
    14     6     9 1   
    15     7     8 ar  
    16     7    29 1   
    17     8    20 ar  
    18     8    30 1   
    19     9    10 1   
    20     9    11 1   
    21     9    31 1   
    22    10    11 1   
    23    10    32 1   
    24    10    33 1   
    25    11    34 1   
    26    11    35 1   
    27    12    15 ar  
    28    12    36 1   
    29    13    14 ar  
    30    13    37 1   
    31    14    15 ar  
    32    14    38 1   
    33    15    24 1   
    34    16    17 1   
    35    16    24 1   
    36    16    39 1   
    37    16    40 1   
    38    17    18 2   
    39    17    26 1   
    40    18    25 1   
    41    18    41 1   
    42    19    20 1   
    43    19    25 2   
    44    19    26 1   
    45    24    42 1   
@<TRIPOS>SUBSTRUCTURE
     1 XBH         1 TEMP              0 ****  ****    0 ROOT
