@<TRIPOS>MOLECULE
XBH
   42    45     1     0     0
SMALL
abcg2


@<TRIPOS>ATOM
      1 N          -31.7210   -23.3610     0.8130 nb         1 XBH      -0.661000
      2 C          -32.6670   -21.2100     1.2510 c3         1 XBH       0.250700
      3 C1         -32.2270   -22.5640     1.7600 ca         1 XBH       0.283300
      4 C10        -37.6120   -27.4570     3.9210 ca         1 XBH      -0.072500
      5 C11        -38.9010   -27.7960     3.5420 ca         1 XBH      -0.115500
      6 C12        -39.1530   -28.9080     2.7320 ca         1 XBH      -0.019300
      7 C13        -38.0550   -29.6740     2.3180 ca         1 XBH      -0.115500
      8 C14        -36.7650   -29.3400     2.6940 ca         1 XBH      -0.072500
      9 C15        -40.5450   -29.2280     2.3440 cx         1 XBH      -0.098400
     10 C16        -41.0080   -30.6590     2.1670 cx         1 XBH      -0.117900
     11 C17        -40.8710   -29.7740     0.9690 cx         1 XBH      -0.117900
     12 C18        -32.3770   -22.9010     3.0860 ca         1 XBH      -0.200000
     13 C2         -31.3380   -24.5750     1.2180 ca         1 XBH       0.372900
     14 C3         -31.4430   -25.0350     2.5190 ca         1 XBH      -0.213000
     15 C4         -31.9760   -24.1870     3.5040 ca         1 XBH       0.359000
     16 C5         -32.0230   -25.9290     5.2690 c3         1 XBH       0.304100
     17 C6         -33.0860   -26.8170     4.6910 cc         1 XBH      -0.282300
     18 C7         -32.9420   -28.0090     4.0470 cd         1 XBH       0.300900
     19 C8         -35.1490   -27.8770     3.8750 cc         1 XBH       0.530900
     20 C9         -36.5190   -28.2230     3.5020 ca         1 XBH      -0.152500
     21 F          -33.6450   -21.3240     0.3230 f          1 XBH      -0.107667
     22 F1         -33.1450   -20.4140     2.2260 f          1 XBH      -0.107667
     23 F2         -31.6520   -20.5420     0.6580 f          1 XBH      -0.107667
     24 N1         -32.0980   -24.5500     4.8090 nu         1 XBH      -0.963200
     25 N2         -34.0940   -28.5990     3.5980 nd         1 XBH      -0.648000
     26 S          -34.7640   -26.3980     4.7300 ss         1 XBH      -0.050400
     27 H6         -37.4610   -26.5900     4.5530 ha         1 XBH       0.125000
     28 H7         -39.7310   -27.1880     3.8800 ha         1 XBH       0.116500
     29 H8         -38.2050   -30.5430     1.6900 ha         1 XBH       0.116500
     30 H9         -35.9320   -29.9420     2.3570 ha         1 XBH       0.125000
     31 H10        -41.2790   -28.5500     2.7610 hc         1 XBH       0.082700
     32 H12        -42.0020   -30.9030     2.5170 hc         1 XBH       0.074950
     33 H11        -40.2710   -31.4380     2.3110 hc         1 XBH       0.074950
     34 H13        -40.0380   -29.9480     0.3000 hc         1 XBH       0.074950
     35 H14        -41.7700   -29.4080     0.4910 hc         1 XBH       0.074950
     36 H15        -32.8000   -22.2060     3.7980 ha         1 XBH       0.136000
     37 H          -30.9250   -25.2260     0.4560 h4         1 XBH       0.026100
     38 H1         -31.1130   -26.0340     2.7550 ha         1 XBH       0.129000
     39 H3         -31.0490   -26.3580     5.0260 h1         1 XBH       0.067700
     40 H4         -32.0960   -25.8980     6.3560 h1         1 XBH       0.067700
     41 H5         -31.9900   -28.4910     3.8720 h4         1 XBH       0.041100
     42 H2         -32.5930   -23.9090     5.4100 hn         1 XBH       0.488000
@<TRIPOS>BOND
     1     1     3 ar  
     2     1    13 ar  
     3     2     3 1   
     4     2    21 1   
     5     2    22 1   
     6     2    23 1   
     7     3    12 ar  
     8     4     5 ar  
     9     4    20 ar  
    10     4    27 1   
    11     5     6 ar  
    12     5    28 1   
    13     6     7 ar  
    14     6     9 1   
    15     7     8 ar  
    16     7    29 1   
    17     8    20 ar  
    18     8    30 1   
    19     9    10 1   
    20     9    11 1   
    21     9    31 1   
    22    10    11 1   
    23    10    32 1   
    24    10    33 1   
    25    11    34 1   
    26    11    35 1   
    27    12    15 ar  
    28    12    36 1   
    29    13    14 ar  
    30    13    37 1   
    31    14    15 ar  
    32    14    38 1   
    33    15    24 1   
    34    16    17 1   
    35    16    24 1   
    36    16    39 1   
    37    16    40 1   
    38    17    18 2   
    39    17    26 1   
    40    18    25 1   
    41    18    41 1   
    42    19    20 1   
    43    19    25 2   
    44    19    26 1   
    45    24    42 1   
@<TRIPOS>SUBSTRUCTURE
     1 XBH         1 TEMP              0 ****  ****    0 ROOT
