@<TRIPOS>MOLECULE
XBJ
   59    62     1     0     0
SMALL
No Charge or Current Charge


@<TRIPOS>ATOM
      1 C01         -2.1670    -2.0100     0.0350 ca         1 XBJ      -0.145000
      2 C02         -3.5670    -1.9850    -0.1550 ca         1 XBJ       0.107100
      3 C03         -4.2460    -0.7450    -0.1900 ca         1 XBJ       0.168100
      4 C04         -3.5190     0.4560    -0.0390 ca         1 XBJ      -0.201000
      5 C05         -2.1280     0.4370     0.1490 ca         1 XBJ       0.097000
      6 N06         -1.4490     1.5930     0.2870 nb         1 XBJ      -0.287000
      7 C07         -0.1110     1.5500     0.4680 cp         1 XBJ       0.274500
      8 N08          0.6000     0.4100     0.5200 nb         1 XBJ      -0.306000
      9 C09         -0.0510    -0.7520     0.3770 ca         1 XBJ       0.425900
     10 C10         -1.4500    -0.8010     0.1890 ca         1 XBJ      -0.181000
     11 N11          0.7420    -1.8950     0.4610 nu         1 XBJ      -0.908100
     12 C12          1.6930    -1.9740    -0.6930 c5         1 XBJ       0.239500
     13 C13          2.9510    -2.6610    -0.0980 c5         1 XBJ      -0.110700
     14 C14          3.5250    -3.2480    -1.4130 c5         1 XBJ       0.152800
     15 N15          2.3500    -3.9290    -2.0140 n7         1 XBJ      -0.862400
     16 C16          1.1640    -3.0800    -1.6740 c5         1 XBJ       0.129800
     17 C17          3.8990    -1.7490     0.7400 c3         1 XBJ       0.194000
     18 C18          5.0740    -2.5500     1.3480 c3         1 XBJ      -0.104100
     19 C19          4.4460    -0.5200    -0.0310 c3         1 XBJ      -0.104100
     20 O20          3.1140    -1.2540     1.8180 oh         1 XBJ      -0.661000
     21 C21          0.6540     2.8490     0.6240 cp         1 XBJ      -0.248500
     22 C22          0.0950     4.1410     0.3700 ca         1 XBJ       0.200100
     23 C23          0.8610     5.3090     0.5260 ca         1 XBJ      -0.159000
     24 C24          2.2000     5.2400     0.9380 ca         1 XBJ      -0.085000
     25 C25          2.7740     3.9910     1.1950 ca         1 XBJ       0.096000
     26 C26          2.0210     2.8170     1.0430 ca         1 XBJ      -0.063000
     27 F27          4.0630     3.9150     1.5930 f          1 XBJ      -0.187000
     28 O28         -1.1910     4.3000    -0.0410 oh         1 XBJ      -0.560100
     29 O29         -5.6190    -0.7480    -0.3770 os         1 XBJ      -0.315100
     30 C30         -6.3970     0.4610    -0.4280 c3         1 XBJ       0.141900
     31 O31         -4.3050    -3.1490    -0.3110 os         1 XBJ      -0.317100
     32 C32         -3.7060    -4.4570    -0.2970 c3         1 XBJ       0.142900
     33 H01         -1.6400    -2.9570     0.0590 ha         1 XBJ       0.116000
     34 H04         -4.0210     1.4180    -0.0640 ha         1 XBJ       0.140000
     35 H11          0.2010    -2.7290     0.6870 hn         1 XBJ       0.504000
     36 H12          1.9190    -1.0300    -1.2120 h1         1 XBJ       0.080700
     37 H13          2.6660    -3.4950     0.5570 hc         1 XBJ       0.067700
     38 H161         0.3830    -3.7050    -1.2180 h1         1 XBJ       0.053700
     39 H162         0.7290    -2.6200    -2.5720 h1         1 XBJ       0.053700
     40 H141         3.8900    -2.4540    -2.0800 h1         1 XBJ       0.040700
     41 H142         4.3520    -3.9510    -1.2380 h1         1 XBJ       0.040700
     42 H15          2.4650    -4.0160    -3.0330 hn         1 XBJ       0.419000
     43 H181         5.7310    -2.9380     0.5620 hc         1 XBJ       0.044867
     44 H182         5.6780    -1.9180     2.0110 hc         1 XBJ       0.044867
     45 H183         4.7070    -3.4010     1.9350 hc         1 XBJ       0.044867
     46 H191         3.6370     0.1190    -0.4040 hc         1 XBJ       0.044867
     47 H192         5.0740     0.0980     0.6240 hc         1 XBJ       0.044867
     48 H193         5.0610    -0.8290    -0.8830 hc         1 XBJ       0.044867
     49 H20          2.1800    -1.3500     1.4900 ho         1 XBJ       0.447000
     50 H26          2.5150     1.8740     1.2620 ha         1 XBJ       0.144000
     51 H23          0.4110     6.2780     0.3230 ha         1 XBJ       0.132000
     52 H28         -1.5930     3.4010    -0.0510 ho         1 XBJ       0.528000
     53 H24          2.7880     6.1470     1.0560 ha         1 XBJ       0.130000
     54 H301        -6.3090     1.0220     0.5110 h1         1 XBJ       0.047033
     55 H302        -6.0690     1.1020    -1.2550 h1         1 XBJ       0.047033
     56 H303        -7.4570     0.2240    -0.5820 h1         1 XBJ       0.047033
     57 H321        -2.9700    -4.5580    -1.1050 h1         1 XBJ       0.042700
     58 H322        -3.2080    -4.6480     0.6620 h1         1 XBJ       0.042700
     59 H323        -4.4730    -5.2280    -0.4400 h1         1 XBJ       0.042700
@<TRIPOS>BOND
     1     1     2 ar  
     2     1    10 ar  
     3     1    33 1   
     4     2     3 ar  
     5     2    31 1   
     6     3     4 ar  
     7     3    29 1   
     8     4     5 ar  
     9     4    34 1   
    10     5     6 ar  
    11     5    10 ar  
    12     6     7 ar  
    13     7     8 ar  
    14     7    21 1   
    15     8     9 ar  
    16     9    10 ar  
    17     9    11 1   
    18    11    12 1   
    19    11    35 1   
    20    12    13 1   
    21    12    16 1   
    22    12    36 1   
    23    13    14 1   
    24    13    17 1   
    25    13    37 1   
    26    14    15 1   
    27    14    40 1   
    28    14    41 1   
    29    15    16 1   
    30    15    42 1   
    31    16    38 1   
    32    16    39 1   
    33    17    18 1   
    34    17    19 1   
    35    17    20 1   
    36    18    43 1   
    37    18    44 1   
    38    18    45 1   
    39    19    46 1   
    40    19    47 1   
    41    19    48 1   
    42    20    49 1   
    43    21    22 ar  
    44    21    26 ar  
    45    22    23 ar  
    46    22    28 1   
    47    23    24 ar  
    48    23    51 1   
    49    24    25 ar  
    50    24    53 1   
    51    25    26 ar  
    52    25    27 1   
    53    26    50 1   
    54    28    52 1   
    55    29    30 1   
    56    30    54 1   
    57    30    55 1   
    58    30    56 1   
    59    31    32 1   
    60    32    57 1   
    61    32    58 1   
    62    32    59 1   
@<TRIPOS>SUBSTRUCTURE
     1 XBJ         1 TEMP              0 ****  ****    0 ROOT
