@<TRIPOS>MOLECULE
XBJ
   59    62     1     0     0
SMALL
abcg2


@<TRIPOS>ATOM
      1 C01         -2.1260    -1.9670     0.0180 ca         1 XBJ      -0.145000
      2 C02         -3.4890    -2.0580     0.1280 ca         1 XBJ       0.107100
      3 C03         -4.2740    -0.8650     0.1980 ca         1 XBJ       0.168100
      4 C04         -3.6620     0.3620     0.1600 ca         1 XBJ      -0.201000
      5 C05         -2.2610     0.4590     0.0480 ca         1 XBJ       0.097000
      6 N06         -1.6900     1.6910     0.0150 nb         1 XBJ      -0.287000
      7 C07         -0.3810     1.7530    -0.0940 cp         1 XBJ       0.274500
      8 N08          0.4430     0.7060    -0.1770 nb         1 XBJ      -0.306000
      9 C09         -0.0720    -0.5110    -0.1450 ca         1 XBJ       0.425900
     10 C10         -1.4910    -0.7080    -0.0280 ca         1 XBJ      -0.181000
     11 N11          0.7700    -1.5460    -0.2130 nu         1 XBJ      -0.908100
     12 C12          2.2050    -1.3950    -0.3550 c5         1 XBJ       0.239500
     13 C13          2.9180    -2.7370    -0.0520 c5         1 XBJ      -0.110700
     14 C14          3.6410    -3.0820    -1.3630 c5         1 XBJ       0.152800
     15 N15          2.8600    -2.3770    -2.3650 n7         1 XBJ      -0.862400
     16 C16          2.6370    -1.0650    -1.7880 c5         1 XBJ       0.129800
     17 C17          3.7980    -2.7340     1.2110 c3         1 XBJ       0.194000
     18 C18          4.4390    -4.1060     1.3830 c3         1 XBJ      -0.104100
     19 C19          4.8810    -1.6570     1.1880 c3         1 XBJ      -0.104100
     20 O20          2.9650    -2.5500     2.3490 oh         1 XBJ      -0.661000
     21 C21          0.2320     3.0940    -0.1390 cp         1 XBJ      -0.248500
     22 C22         -0.5500     4.2640    -0.0520 ca         1 XBJ       0.200100
     23 C23          0.0810     5.5100    -0.1040 ca         1 XBJ      -0.159000
     24 C24          1.4520     5.6120    -0.2420 ca         1 XBJ      -0.085000
     25 C25          2.2020     4.4510    -0.3260 ca         1 XBJ       0.096000
     26 C26          1.6190     3.2100    -0.2760 ca         1 XBJ      -0.063000
     27 F27          3.5400     4.5460    -0.4610 f          1 XBJ      -0.187000
     28 O28         -1.8770     4.2420     0.0790 oh         1 XBJ      -0.560100
     29 O29         -5.5890    -1.0660     0.2990 os         1 XBJ      -0.315100
     30 C30         -6.4400     0.0650     0.3560 c3         1 XBJ       0.141900
     31 O31         -4.1910    -3.1980     0.1770 os         1 XBJ      -0.317100
     32 C32         -3.4850    -4.4190     0.0760 c3         1 XBJ       0.142900
     33 H01         -1.5360    -2.8720    -0.0350 ha         1 XBJ       0.116000
     34 H04         -4.2330     1.2800     0.2130 ha         1 XBJ       0.140000
     35 H11          0.3970    -2.4770    -0.2860 hn         1 XBJ       0.504000
     36 H12          2.5170    -0.5920     0.3150 h1         1 XBJ       0.080700
     37 H13          2.1560    -3.5050     0.1200 hc         1 XBJ       0.067700
     38 H161         1.8830    -0.4980    -2.3350 h1         1 XBJ       0.053700
     39 H162         3.5480    -0.4480    -1.7460 h1         1 XBJ       0.053700
     40 H141         4.6870    -2.7440    -1.3310 h1         1 XBJ       0.040700
     41 H142         3.6540    -4.1560    -1.5530 h1         1 XBJ       0.040700
     42 H15          3.3480    -2.3220    -3.2500 hn         1 XBJ       0.419000
     43 H181         5.1330    -4.3210     0.5710 hc         1 XBJ       0.044867
     44 H182         5.0030    -4.1520     2.3170 hc         1 XBJ       0.044867
     45 H183         3.6850    -4.8960     1.4010 hc         1 XBJ       0.044867
     46 H191         4.4600    -0.6500     1.1420 hc         1 XBJ       0.044867
     47 H192         5.4840    -1.7160     2.0950 hc         1 XBJ       0.044867
     48 H193         5.5540    -1.7670     0.3380 hc         1 XBJ       0.044867
     49 H20          2.6320    -1.6470     2.3480 ho         1 XBJ       0.447000
     50 H26          2.2220     2.3150    -0.3440 ha         1 XBJ       0.144000
     51 H23         -0.5220     6.4060    -0.0350 ha         1 XBJ       0.132000
     52 H28         -2.1520     3.2830     0.0910 ho         1 XBJ       0.528000
     53 H24          1.9290     6.5820    -0.2840 ha         1 XBJ       0.130000
     54 H301        -6.2310     0.6840     1.2310 h1         1 XBJ       0.047033
     55 H302        -6.3540     0.6800    -0.5430 h1         1 XBJ       0.047033
     56 H303        -7.4540    -0.3190     0.4270 h1         1 XBJ       0.047033
     57 H321        -2.9420    -4.4940    -0.8700 h1         1 XBJ       0.042700
     58 H322        -2.7790    -4.5480     0.9000 h1         1 XBJ       0.042700
     59 H323        -4.2280    -5.2110     0.1210 h1         1 XBJ       0.042700
@<TRIPOS>BOND
     1     1     2 ar  
     2     1    10 ar  
     3     1    33 1   
     4     2     3 ar  
     5     2    31 1   
     6     3     4 ar  
     7     3    29 1   
     8     4     5 ar  
     9     4    34 1   
    10     5     6 ar  
    11     5    10 ar  
    12     6     7 ar  
    13     7     8 ar  
    14     7    21 1   
    15     8     9 ar  
    16     9    10 ar  
    17     9    11 1   
    18    11    12 1   
    19    11    35 1   
    20    12    13 1   
    21    12    16 1   
    22    12    36 1   
    23    13    14 1   
    24    13    17 1   
    25    13    37 1   
    26    14    15 1   
    27    14    40 1   
    28    14    41 1   
    29    15    16 1   
    30    15    42 1   
    31    16    38 1   
    32    16    39 1   
    33    17    18 1   
    34    17    19 1   
    35    17    20 1   
    36    18    43 1   
    37    18    44 1   
    38    18    45 1   
    39    19    46 1   
    40    19    47 1   
    41    19    48 1   
    42    20    49 1   
    43    21    22 ar  
    44    21    26 ar  
    45    22    23 ar  
    46    22    28 1   
    47    23    24 ar  
    48    23    51 1   
    49    24    25 ar  
    50    24    53 1   
    51    25    26 ar  
    52    25    27 1   
    53    26    50 1   
    54    28    52 1   
    55    29    30 1   
    56    30    54 1   
    57    30    55 1   
    58    30    56 1   
    59    31    32 1   
    60    32    57 1   
    61    32    58 1   
    62    32    59 1   
@<TRIPOS>SUBSTRUCTURE
     1 XBJ         1 TEMP              0 ****  ****    0 ROOT
