@<TRIPOS>MOLECULE
XBK
   92    94     1     0     0
SMALL
bcc


@<TRIPOS>ATOM
      1 N            7.0290    -4.1080    -0.5530 n8         1 XBK      -0.867800
      2 C1           3.4190     3.6370     0.2050 c6         1 XBK       0.165100
      3 O1           4.3690     4.0850    -0.7420 oh         1 XBK      -0.575800
      4 C2           3.6960     2.1710     0.4920 c6         1 XBK      -0.226700
      5 C3           5.1130     1.9750     1.0690 c          1 XBK       0.939600
      6 O3           5.3700     2.6010     2.1180 o          1 XBK      -0.834300
      7 C4           2.6340     1.6880     1.4820 c6         1 XBK       0.172100
      8 O4           2.8240    -1.9300     0.5790 os         1 XBK      -0.420600
      9 C5           2.7260     0.1980     1.8070 c3         1 XBK      -0.091400
     10 O5           4.2040    -4.2470    -0.1800 oh         1 XBK      -0.607800
     11 C6           2.1240    -0.7030     0.7080 c3         1 XBK       0.183300
     12 O6           7.0210    -2.4320    -2.8400 oh         1 XBK      -0.574800
     13 C7           4.0080    -1.8290    -0.1330 c6         1 XBK       0.294900
     14 O7           3.6930    -1.7580    -1.5000 os         1 XBK      -0.433600
     15 C8           4.8690    -3.0500     0.1480 c6         1 XBK       0.090100
     16 O8          -8.0890    -0.6940    -0.0390 os         1 XBK      -0.433900
     17 C9           6.1530    -2.9600    -0.6880 c6         1 XBK       0.165500
     18 C10          5.8180    -2.7010    -2.1590 c6         1 XBK       0.131100
     19 O10         -0.7060     5.3460    -0.4800 oh         1 XBK      -0.579800
     20 C11          4.8460    -1.5170    -2.2850 c6         1 XBK       0.113100
     21 O11          0.8350     4.0090     1.7370 oh         1 XBK      -0.602800
     22 C12          4.3940    -1.2750    -3.7110 c3         1 XBK      -0.085100
     23 O12          1.3260     1.8980     0.9690 os         1 XBK      -0.489600
     24 C13          0.6890    -0.9730     1.0130 c2         1 XBK      -0.106200
     25 C14         -0.0200    -2.0970     0.8580 ce         1 XBK      -0.167000
     26 C15         -1.4200    -2.0870     1.2260 ce         1 XBK      -0.088000
     27 C16         -2.3570    -3.0130     0.9530 cf         1 XBK      -0.166000
     28 C17         -3.7320    -2.7830     1.3220 cf         1 XBK      -0.100000
     29 C18         -4.8030    -3.4720     0.8890 ce         1 XBK      -0.151000
     30 C19         -6.1530    -3.0610     1.2060 ce         1 XBK      -0.110000
     31 C20         -7.2410    -3.4920     0.5610 c2         1 XBK      -0.180200
     32 C21         -8.6060    -2.9210     0.7570 c3         1 XBK      -0.055200
     33 C22         -8.9380    -1.8330    -0.2700 c3         1 XBK       0.157100
     34 C23        -10.3670    -1.3470    -0.1360 c3         1 XBK      -0.096100
     35 C24         -6.9870    -0.5040    -0.7610 c          1 XBK       0.654300
     36 C25         -6.3300     0.7590    -0.3840 ce         1 XBK      -0.236200
     37 C26         -5.0950     1.0580    -0.8120 cf         1 XBK      -0.039000
     38 C27         -4.4440     2.3330    -0.6030 cf         1 XBK      -0.173000
     39 C28         -3.2120     2.5900    -1.0590 c2         1 XBK      -0.107200
     40 C29         -2.5600     3.9330    -1.0710 c3         1 XBK      -0.096200
     41 C30         -1.3760     4.1610    -0.1090 c3         1 XBK       0.169100
     42 C31         -0.4010     2.9940    -0.1260 c3         1 XBK      -0.098400
     43 C32          0.9440     3.2010     0.6000 c6         1 XBK       0.380600
     44 C33          1.9990     3.8210    -0.3160 c6         1 XBK      -0.127400
     45 HN           7.3680    -4.1600     0.4010 hn         1 XBK       0.336800
     46 HNA          6.5000    -4.9580    -0.7030 hn         1 XBK       0.336800
     47 HO1          4.2340     5.0290    -0.8770 ho         1 XBK       0.377000
     48 H2           3.6040     1.5980    -0.4400 hc         1 XBK       0.052700
     49 H4           2.7690     2.2490     2.4150 h1         1 XBK       0.065700
     50 H5           3.7750    -0.0550     1.9700 hc         1 XBK       0.062700
     51 H5A          2.2240    -0.0050     2.7570 hc         1 XBK       0.062700
     52 HO5          3.4230    -4.3250     0.3770 ho         1 XBK       0.416000
     53 H6           2.1660    -0.1640    -0.2490 h1         1 XBK       0.083700
     54 HO6          6.8700    -2.5420    -3.7830 ho         1 XBK       0.390000
     55 H7           4.5730    -0.9260     0.1570 h2         1 XBK       0.097700
     56 H8           5.1530    -3.0330     1.2120 h1         1 XBK       0.042700
     57 H9           6.6990    -2.0830    -0.3200 h1         1 XBK       0.100700
     58 H10          5.3240    -3.5930    -2.5720 h1         1 XBK       0.038700
     59 HO10        -1.3100     6.0850    -0.3580 ho         1 XBK       0.395000
     60 H11          5.3570    -0.6140    -1.9130 h1         1 XBK       0.088700
     61 H12          3.6760    -0.4550    -3.7530 hc         1 XBK       0.037033
     62 H12A         5.2360    -0.9930    -4.3440 hc         1 XBK       0.037033
     63 H12B         3.9260    -2.1630    -4.1390 hc         1 XBK       0.037033
     64 H13          0.1670    -0.1100     1.4110 ha         1 XBK       0.130000
     65 H14          0.4120    -3.0010     0.4430 ha         1 XBK       0.140000
     66 H15         -1.7510    -1.1920     1.7480 ha         1 XBK       0.107000
     67 H16         -2.1030    -3.9170     0.4060 ha         1 XBK       0.127000
     68 H17         -3.9100    -1.9210     1.9610 ha         1 XBK       0.111000
     69 H18         -4.6730    -4.3170     0.2180 ha         1 XBK       0.124000
     70 H19         -6.2610    -2.2910     1.9660 ha         1 XBK       0.117000
     71 H20         -7.1320    -4.2380    -0.2210 ha         1 XBK       0.123000
     72 H21         -9.3630    -3.7030     0.6600 hc         1 XBK       0.049700
     73 H21A        -8.7120    -2.4970     1.7610 hc         1 XBK       0.049700
     74 H22         -8.7700    -2.2130    -1.2790 h1         1 XBK       0.067700
     75 H23        -10.5850    -0.5540    -0.8510 hc         1 XBK       0.043033
     76 H23A       -11.0540    -2.1700    -0.3320 hc         1 XBK       0.043033
     77 H23B       -10.5680    -0.9730     0.8700 hc         1 XBK       0.043033
     78 H25         -6.8880     1.4570     0.2290 ha         1 XBK       0.142000
     79 H26         -4.5480     0.3230    -1.3960 ha         1 XBK       0.145000
     80 H27         -5.0190     3.1190    -0.1210 ha         1 XBK       0.123000
     81 H28         -2.6600     1.7800    -1.5280 ha         1 XBK       0.131000
     82 H29         -2.1760     4.0960    -2.0840 hc         1 XBK       0.051700
     83 H29A        -3.3080     4.7080    -0.8850 hc         1 XBK       0.051700
     84 H30         -1.7840     4.2550     0.9070 h1         1 XBK       0.025700
     85 H31         -0.9140     2.1470     0.3400 hc         1 XBK       0.060200
     86 H31A        -0.1960     2.6900    -1.1570 hc         1 XBK       0.060200
     87 H33          1.7770     4.8790    -0.4630 hc         1 XBK       0.052700
     88 H33A         1.9270     3.3400    -1.2960 hc         1 XBK       0.052700
     89 HO11         0.1810     3.6240     2.3320 ho         1 XBK       0.396000
     90 O9          -6.6040    -1.2490    -1.6330 o          1 XBK      -0.539000
     91 O2           5.8800     1.2020     0.4600 o          1 XBK      -0.834300
     92 H1           3.5330     4.1910     1.1460 h1         1 XBK       0.059700
@<TRIPOS>BOND
     1     1    17 1   
     2     1    45 1   
     3     1    46 1   
     4     2     3 1   
     5     2     4 1   
     6     2    44 1   
     7     2    92 1   
     8     3    47 1   
     9     4     5 1   
    10     4     7 1   
    11     4    48 1   
    12     5     6 1   
    13     5    91 1   
    14     7     9 1   
    15     7    23 1   
    16     7    49 1   
    17     8    11 1   
    18     8    13 1   
    19     9    11 1   
    20     9    50 1   
    21     9    51 1   
    22    10    15 1   
    23    10    52 1   
    24    11    24 1   
    25    11    53 1   
    26    12    18 1   
    27    12    54 1   
    28    13    14 1   
    29    13    15 1   
    30    13    55 1   
    31    14    20 1   
    32    15    17 1   
    33    15    56 1   
    34    16    33 1   
    35    16    35 1   
    36    17    18 1   
    37    17    57 1   
    38    18    20 1   
    39    18    58 1   
    40    19    41 1   
    41    19    59 1   
    42    20    22 1   
    43    20    60 1   
    44    21    43 1   
    45    21    89 1   
    46    22    61 1   
    47    22    62 1   
    48    22    63 1   
    49    23    43 1   
    50    24    25 2   
    51    24    64 1   
    52    25    26 1   
    53    25    65 1   
    54    26    27 2   
    55    26    66 1   
    56    27    28 1   
    57    27    67 1   
    58    28    29 2   
    59    28    68 1   
    60    29    30 1   
    61    29    69 1   
    62    30    31 2   
    63    30    70 1   
    64    31    32 1   
    65    31    71 1   
    66    32    33 1   
    67    32    72 1   
    68    32    73 1   
    69    33    34 1   
    70    33    74 1   
    71    34    75 1   
    72    34    76 1   
    73    34    77 1   
    74    35    36 1   
    75    35    90 2   
    76    36    37 2   
    77    36    78 1   
    78    37    38 1   
    79    37    79 1   
    80    38    39 2   
    81    38    80 1   
    82    39    40 1   
    83    39    81 1   
    84    40    41 1   
    85    40    82 1   
    86    40    83 1   
    87    41    42 1   
    88    41    84 1   
    89    42    43 1   
    90    42    85 1   
    91    42    86 1   
    92    43    44 1   
    93    44    87 1   
    94    44    88 1   
@<TRIPOS>SUBSTRUCTURE
     1 XBK         1 TEMP              0 ****  ****    0 ROOT
