@<TRIPOS>MOLECULE
XBK
   92    94     1     0     0
SMALL
No Charge or Current Charge


@<TRIPOS>ATOM
      1 N            7.0030    -4.7300    -0.4360 n8         1 XBK      -0.978200
      2 C1           3.3060     4.0310     0.0830 c6         1 XBK       0.188300
      3 O1           4.1190     4.6350    -0.9290 oh         1 XBK      -0.638000
      4 C2           3.7110     2.5540     0.2840 c6         1 XBK      -0.226700
      5 C3           5.1780     2.4330     0.7200 c          1 XBK       0.729000
      6 O3           5.5100     2.9350     1.7840 o          1 XBK      -0.729000
      7 C4           2.7570     1.9180     1.3220 c6         1 XBK       0.195300
      8 O4           3.0840    -1.8610     0.7220 os         1 XBK      -0.467000
      9 C5           3.0430     0.4100     1.6210 c3         1 XBK      -0.091400
     10 O5           4.1370    -4.4170     0.1610 oh         1 XBK      -0.730000
     11 C6           2.3590    -0.6150     0.6720 c3         1 XBK       0.206500
     12 O6           7.0500    -3.3820    -2.9420 oh         1 XBK      -0.697000
     13 C7           4.3160    -1.9330    -0.0270 c6         1 XBK       0.341300
     14 O7           3.9740    -1.8760    -1.4300 os         1 XBK      -0.480000
     15 C8           5.0360    -3.2890     0.3000 c6         1 XBK       0.113300
     16 O8          -8.3390    -0.7330    -0.0250 os         1 XBK      -0.457100
     17 C9           6.2830    -3.4330    -0.6330 c6         1 XBK       0.165500
     18 C10          5.8720    -3.2700    -2.1270 c6         1 XBK       0.154300
     19 O10         -1.0280     5.5870     0.0280 oh         1 XBK      -0.642000
     20 C11          5.1150    -1.9200    -2.3200 c6         1 XBK       0.136300
     21 O11          0.8060     3.9320     1.9190 oh         1 XBK      -0.665000
     22 C12          4.5620    -1.7330    -3.7560 c3         1 XBK      -0.085100
     23 O12          1.3940     2.0240     0.8340 os         1 XBK      -0.536000
     24 C13          0.9290    -0.8970     1.0980 c2         1 XBK      -0.156200
     25 C14          0.0750    -1.8100     0.5900 ce         1 XBK      -0.217000
     26 C15         -1.3060    -1.8990     1.0690 ce         1 XBK      -0.138000
     27 C16         -2.2790    -2.6980     0.5630 cf         1 XBK      -0.216000
     28 C17         -3.6540    -2.6450     1.0330 cf         1 XBK      -0.150000
     29 C18         -4.7080    -3.2800     0.4620 ce         1 XBK      -0.201000
     30 C19         -6.0900    -3.0670     0.8930 ce         1 XBK      -0.160000
     31 C20         -7.1610    -3.4860     0.1910 c2         1 XBK      -0.230200
     32 C21         -8.5970    -3.1200     0.5110 c3         1 XBK      -0.055200
     33 C22         -9.1320    -1.9090    -0.3090 c3         1 XBK       0.180300
     34 C23        -10.5860    -1.5560     0.0600 c3         1 XBK      -0.096100
     35 C24         -7.2020    -0.4930    -0.7590 c          1 XBK       0.605300
     36 C25         -6.4930     0.7230    -0.2730 ce         1 XBK      -0.286200
     37 C26         -5.3010     1.1690    -0.7640 cf         1 XBK      -0.089000
     38 C27         -4.6530     2.4180    -0.3800 cf         1 XBK      -0.223000
     39 C28         -3.4700     2.8310    -0.8930 c2         1 XBK      -0.157200
     40 C29         -2.8440     4.2030    -0.6990 c3         1 XBK      -0.096200
     41 C30         -1.6090     4.2960     0.2390 c3         1 XBK       0.192300
     42 C31         -0.5570     3.1670     0.0250 c3         1 XBK      -0.098400
     43 C32          0.8810     3.3480     0.6300 c6         1 XBK       0.427000
     44 C33          1.8200     4.1420    -0.3230 c6         1 XBK      -0.127400
     45 HN           7.4000    -4.7440     0.5110 hn         1 XBK       0.392000
     46 HNA          6.2760    -5.4560    -0.3830 hn         1 XBK       0.392000
     47 HO1          3.8350     5.5710    -0.9950 ho         1 XBK       0.416000
     48 H2           3.6020     2.0200    -0.6700 hc         1 XBK       0.052700
     49 H4           2.8540     2.4640     2.2730 h1         1 XBK       0.065700
     50 H5           4.1220     0.2390     1.6460 hc         1 XBK       0.062700
     51 H5A          2.7210     0.1910     2.6460 hc         1 XBK       0.062700
     52 HO5          3.2380    -4.0280     0.2840 ho         1 XBK       0.515000
     53 H6           2.3530    -0.2140    -0.3520 h1         1 XBK       0.083700
     54 HO6          7.5890    -4.0550    -2.4590 ho         1 XBK       0.489000
     55 H7           4.9810    -1.0940     0.2320 h2         1 XBK       0.097700
     56 H8           5.3920    -3.2320     1.3390 h1         1 XBK       0.042700
     57 H9           6.9870    -2.6190    -0.3900 h1         1 XBK       0.100700
     58 H10          5.1780    -4.0850    -2.3840 h1         1 XBK       0.038700
     59 HO10        -1.6670     6.2460     0.3740 ho         1 XBK       0.434000
     60 H11          5.7860    -1.0780    -2.0900 h1         1 XBK       0.088700
     61 H12          4.0040    -0.7940    -3.8430 hc         1 XBK       0.037033
     62 H12A         5.3740    -1.7030    -4.4920 hc         1 XBK       0.037033
     63 H12B         3.8880    -2.5530    -4.0330 hc         1 XBK       0.037033
     64 H13          0.5760    -0.2320     1.8860 ha         1 XBK       0.180000
     65 H14          0.3840    -2.4780    -0.2170 ha         1 XBK       0.190000
     66 H15         -1.5770    -1.2210     1.8810 ha         1 XBK       0.157000
     67 H16         -2.0450    -3.3660    -0.2690 ha         1 XBK       0.177000
     68 H17         -3.8550    -1.9830     1.8780 ha         1 XBK       0.161000
     69 H18         -4.5410    -3.9150    -0.4100 ha         1 XBK       0.174000
     70 H19         -6.2360    -2.4530     1.7850 ha         1 XBK       0.167000
     71 H20         -7.0340    -4.0620    -0.7270 ha         1 XBK       0.173000
     72 H21         -9.2430    -3.9860     0.3180 hc         1 XBK       0.049700
     73 H21A        -8.7000    -2.9000     1.5810 hc         1 XBK       0.049700
     74 H22         -9.1100    -2.1560    -1.3800 h1         1 XBK       0.067700
     75 H23        -10.9360    -0.7040    -0.5350 hc         1 XBK       0.043033
     76 H23A       -11.2500    -2.4050    -0.1390 hc         1 XBK       0.043033
     77 H23B       -10.6680    -1.2950     1.1220 hc         1 XBK       0.043033
     78 H25         -7.0010     1.2850     0.5070 ha         1 XBK       0.192000
     79 H26         -4.8100     0.5770    -1.5440 ha         1 XBK       0.195000
     80 H27         -5.2020     3.0750     0.2980 ha         1 XBK       0.173000
     81 H28         -2.9360     2.1880    -1.5960 ha         1 XBK       0.181000
     82 H29         -2.5480     4.5730    -1.6890 hc         1 XBK       0.051700
     83 H29A        -3.6040     4.9070    -0.3400 hc         1 XBK       0.051700
     84 H30         -1.9620     4.2210     1.2770 h1         1 XBK       0.025700
     85 H31         -0.9960     2.2460     0.4270 hc         1 XBK       0.060200
     86 H31A        -0.4630     2.9890    -1.0520 hc         1 XBK       0.060200
     87 H33          1.5280     5.1990    -0.3510 hc         1 XBK       0.052700
     88 H33A         1.7010     3.7620    -1.3470 hc         1 XBK       0.052700
     89 HO11         0.4920     3.2010     2.4860 ho         1 XBK       0.435000
     90 O9          -6.8270    -1.1600    -1.7130 o          1 XBK      -0.490000
     91 O2           5.9330     1.7770     0.0160 o          1 XBK      -0.729000
     92 H1           3.4410     4.5630     1.0390 h1         1 XBK       0.059700
@<TRIPOS>BOND
     1     1    17 1   
     2     1    45 1   
     3     1    46 1   
     4     2     3 1   
     5     2     4 1   
     6     2    44 1   
     7     2    92 1   
     8     3    47 1   
     9     4     5 1   
    10     4     7 1   
    11     4    48 1   
    12     5     6 1   
    13     5    91 1   
    14     7     9 1   
    15     7    23 1   
    16     7    49 1   
    17     8    11 1   
    18     8    13 1   
    19     9    11 1   
    20     9    50 1   
    21     9    51 1   
    22    10    15 1   
    23    10    52 1   
    24    11    24 1   
    25    11    53 1   
    26    12    18 1   
    27    12    54 1   
    28    13    14 1   
    29    13    15 1   
    30    13    55 1   
    31    14    20 1   
    32    15    17 1   
    33    15    56 1   
    34    16    33 1   
    35    16    35 1   
    36    17    18 1   
    37    17    57 1   
    38    18    20 1   
    39    18    58 1   
    40    19    41 1   
    41    19    59 1   
    42    20    22 1   
    43    20    60 1   
    44    21    43 1   
    45    21    89 1   
    46    22    61 1   
    47    22    62 1   
    48    22    63 1   
    49    23    43 1   
    50    24    25 2   
    51    24    64 1   
    52    25    26 1   
    53    25    65 1   
    54    26    27 2   
    55    26    66 1   
    56    27    28 1   
    57    27    67 1   
    58    28    29 2   
    59    28    68 1   
    60    29    30 1   
    61    29    69 1   
    62    30    31 2   
    63    30    70 1   
    64    31    32 1   
    65    31    71 1   
    66    32    33 1   
    67    32    72 1   
    68    32    73 1   
    69    33    34 1   
    70    33    74 1   
    71    34    75 1   
    72    34    76 1   
    73    34    77 1   
    74    35    36 1   
    75    35    90 2   
    76    36    37 2   
    77    36    78 1   
    78    37    38 1   
    79    37    79 1   
    80    38    39 2   
    81    38    80 1   
    82    39    40 1   
    83    39    81 1   
    84    40    41 1   
    85    40    82 1   
    86    40    83 1   
    87    41    42 1   
    88    41    84 1   
    89    42    43 1   
    90    42    85 1   
    91    42    86 1   
    92    43    44 1   
    93    44    87 1   
    94    44    88 1   
@<TRIPOS>SUBSTRUCTURE
     1 XBK         1 TEMP              0 ****  ****    0 ROOT
