@<TRIPOS>MOLECULE
XBL
   41    45     1     0     0
SMALL
abcg2


@<TRIPOS>ATOM
      1 C           -1.9600     3.5890     0.3900 c3         1 XBL      -0.095400
      2 C1          -2.4750     2.2320     0.6670 cc         1 XBL       0.373800
      3 N2          -1.8660     1.0930     0.2520 na         1 XBL       0.120000
      4 N3          -0.6860     1.0080    -0.3860 nc         1 XBL      -0.531800
      5 C3          -0.2910    -0.1830    -0.7000 cd         1 XBL       0.572900
      6 C13         -1.0820    -1.3860    -0.4200 ca         1 XBL      -0.084000
      7 C18         -0.7630    -2.6430    -0.9500 ca         1 XBL      -0.075000
      8 C17         -1.5400    -3.7430    -0.6520 ca         1 XBL      -0.111000
      9 C16         -2.6630    -3.6160     0.1680 ca         1 XBL      -0.090000
     10 C15         -3.0300    -2.3790     0.6520 ca         1 XBL      -0.075000
     11 C14         -2.2530    -1.2610     0.3460 ca         1 XBL       0.018000
     12 C2          -2.6390     0.0710     0.7040 cc         1 XBL      -0.133000
     13 N1          -3.6650     0.5530     1.3540 nd         1 XBL      -0.075000
     14 N           -3.5550     1.9030     1.3270 nd         1 XBL      -0.383700
     15 N4           0.8900    -0.3060    -1.3950 nh         1 XBL      -0.752300
     16 C8           1.9560    -1.1210    -0.8280 c6         1 XBL       0.246100
     17 C7           2.9400    -0.3150    -0.0110 ca         1 XBL      -0.120300
     18 C9           3.7540    -0.9750     0.9080 ca         1 XBL      -0.100000
     19 C10          4.6890    -0.2820     1.6590 ca         1 XBL      -0.109000
     20 C11          4.8160     1.0930     1.4930 ca         1 XBL      -0.101000
     21 C12          4.0080     1.7520     0.5830 ca         1 XBL      -0.108000
     22 C6           3.0650     1.0630    -0.1790 ca         1 XBL      -0.061300
     23 C5           2.1870     1.8070    -1.1490 c6         1 XBL      -0.064100
     24 C4           1.4230     0.8670    -2.0720 c6         1 XBL       0.202800
     25 HC1         -1.9140     3.7810    -0.6830 hc         1 XBL       0.060700
     26 HC2         -2.6160     4.3270     0.8450 hc         1 XBL       0.060700
     27 HC3         -0.9550     3.7210     0.7910 hc         1 XBL       0.060700
     28 H18          0.0800    -2.7580    -1.6150 ha         1 XBL       0.127000
     29 H17         -1.2820    -4.7080    -1.0670 ha         1 XBL       0.120000
     30 H16         -3.2630    -4.4860     0.4000 ha         1 XBL       0.122000
     31 H15         -3.9240    -2.2630     1.2500 ha         1 XBL       0.144000
     32 H81C         1.5420    -1.9070    -0.2010 h1         1 XBL       0.066200
     33 H82C         2.4830    -1.6210    -1.6470 h1         1 XBL       0.066200
     34 H41C         2.0920     0.4910    -2.8520 h1         1 XBL       0.061700
     35 H42C         0.6130     1.3950    -2.5730 h1         1 XBL       0.061700
     36 H9           3.6470    -2.0460     1.0400 ha         1 XBL       0.110000
     37 H10          5.3100    -0.8090     2.3710 ha         1 XBL       0.116000
     38 H11          5.5440     1.6480     2.0720 ha         1 XBL       0.115000
     39 H12          4.1090     2.8240     0.4520 ha         1 XBL       0.113000
     40 H51C         1.4840     2.4320    -0.5940 hc         1 XBL       0.064700
     41 H52C         2.7940     2.4840    -1.7550 hc         1 XBL       0.064700
@<TRIPOS>BOND
     1     1     2 1   
     2     1    25 1   
     3     1    26 1   
     4     1    27 1   
     5     2     3 1   
     6     2    14 2   
     7     3     4 1   
     8     3    12 1   
     9     4     5 2   
    10     5     6 1   
    11     5    15 1   
    12     6     7 ar  
    13     6    11 ar  
    14     7     8 ar  
    15     7    28 1   
    16     8     9 ar  
    17     8    29 1   
    18     9    10 ar  
    19     9    30 1   
    20    10    11 ar  
    21    10    31 1   
    22    11    12 1   
    23    12    13 2   
    24    13    14 1   
    25    15    16 1   
    26    15    24 1   
    27    16    17 1   
    28    16    32 1   
    29    16    33 1   
    30    17    18 ar  
    31    17    22 ar  
    32    18    19 ar  
    33    18    36 1   
    34    19    20 ar  
    35    19    37 1   
    36    20    21 ar  
    37    20    38 1   
    38    21    22 ar  
    39    21    39 1   
    40    22    23 1   
    41    23    24 1   
    42    23    40 1   
    43    23    41 1   
    44    24    34 1   
    45    24    35 1   
@<TRIPOS>SUBSTRUCTURE
     1 XBL         1 TEMP              0 ****  ****    0 ROOT
