@<TRIPOS>MOLECULE
XBL
   41    45     1     0     0
SMALL
No Charge or Current Charge


@<TRIPOS>ATOM
      1 C           -2.1370     3.6350     0.6710 c3         1 XBL      -0.095400
      2 C1          -2.6630     2.2290     0.7380 cc         1 XBL       0.373800
      3 N2          -2.0360     1.1000     0.2710 na         1 XBL       0.120000
      4 N3          -0.7800     1.0650    -0.3250 nc         1 XBL      -0.531800
      5 C3          -0.4030    -0.1800    -0.6520 cd         1 XBL       0.572900
      6 C13         -1.2180    -1.4240    -0.4850 ca         1 XBL      -0.084000
      7 C18         -0.8230    -2.6920    -0.9740 ca         1 XBL      -0.075000
      8 C17         -1.6450    -3.8170    -0.7800 ca         1 XBL      -0.111000
      9 C16         -2.8750    -3.6880    -0.1130 ca         1 XBL      -0.090000
     10 C15         -3.2900    -2.4270     0.3460 ca         1 XBL      -0.075000
     11 C14         -2.4620    -1.3070     0.1460 ca         1 XBL       0.018000
     12 C2          -2.8290     0.0290     0.5390 cc         1 XBL      -0.133000
     13 N1          -3.9270     0.4610     1.1350 nd         1 XBL      -0.075000
     14 N           -3.8210     1.8420     1.2670 nd         1 XBL      -0.383700
     15 N4           0.9010    -0.2950    -1.1540 nh         1 XBL      -0.752300
     16 C8           1.9120    -1.0930    -0.4090 c6         1 XBL       0.246100
     17 C7           3.0780    -0.2620     0.1530 ca         1 XBL      -0.120300
     18 C9           3.9670    -0.8620     1.0670 ca         1 XBL      -0.100000
     19 C10          5.0450    -0.1320     1.5950 ca         1 XBL      -0.109000
     20 C11          5.2420     1.2050     1.2150 ca         1 XBL      -0.101000
     21 C12          4.3610     1.8110     0.3040 ca         1 XBL      -0.108000
     22 C6           3.2820     1.0830    -0.2330 ca         1 XBL      -0.061300
     23 C5           2.3230     1.7610    -1.2120 c6         1 XBL      -0.064100
     24 C4           1.4900     0.7500    -2.0310 c6         1 XBL       0.202800
     25 HC1         -1.9650     3.9330    -0.3700 hc         1 XBL       0.060700
     26 HC2         -2.8450     4.3430     1.1160 hc         1 XBL       0.060700
     27 HC3         -1.1870     3.7180     1.2110 hc         1 XBL       0.060700
     28 H18          0.1130    -2.8150    -1.5130 ha         1 XBL       0.127000
     29 H17         -1.3300    -4.7890    -1.1520 ha         1 XBL       0.120000
     30 H16         -3.5110    -4.5580     0.0350 ha         1 XBL       0.122000
     31 H15         -4.2510    -2.3190     0.8430 ha         1 XBL       0.144000
     32 H81C         1.4350    -1.6230     0.4290 h1         1 XBL       0.066200
     33 H82C         2.3300    -1.8660    -1.0710 h1         1 XBL       0.066200
     34 H41C         2.1450     0.2740    -2.7760 h1         1 XBL       0.061700
     35 H42C         0.7090     1.2840    -2.5930 h1         1 XBL       0.061700
     36 H9           3.8230    -1.8970     1.3680 ha         1 XBL       0.110000
     37 H10          5.7270    -0.6030     2.3010 ha         1 XBL       0.116000
     38 H11          6.0750     1.7710     1.6260 ha         1 XBL       0.115000
     39 H12          4.5160     2.8480     0.0150 ha         1 XBL       0.113000
     40 H51C         1.6490     2.4200    -0.6500 hc         1 XBL       0.064700
     41 H52C         2.8800     2.4100    -1.9010 hc         1 XBL       0.064700
@<TRIPOS>BOND
     1     1     2 1   
     2     1    25 1   
     3     1    26 1   
     4     1    27 1   
     5     2     3 1   
     6     2    14 2   
     7     3     4 1   
     8     3    12 1   
     9     4     5 2   
    10     5     6 1   
    11     5    15 1   
    12     6     7 ar  
    13     6    11 ar  
    14     7     8 ar  
    15     7    28 1   
    16     8     9 ar  
    17     8    29 1   
    18     9    10 ar  
    19     9    30 1   
    20    10    11 ar  
    21    10    31 1   
    22    11    12 1   
    23    12    13 2   
    24    13    14 1   
    25    15    16 1   
    26    15    24 1   
    27    16    17 1   
    28    16    32 1   
    29    16    33 1   
    30    17    18 ar  
    31    17    22 ar  
    32    18    19 ar  
    33    18    36 1   
    34    19    20 ar  
    35    19    37 1   
    36    20    21 ar  
    37    20    38 1   
    38    21    22 ar  
    39    21    39 1   
    40    22    23 1   
    41    23    24 1   
    42    23    40 1   
    43    23    41 1   
    44    24    34 1   
    45    24    35 1   
@<TRIPOS>SUBSTRUCTURE
     1 XBL         1 TEMP              0 ****  ****    0 ROOT
