@<TRIPOS>MOLECULE
XBM
   54    55     1     0     0
SMALL
bcc


@<TRIPOS>ATOM
      1 C01        -15.6510    13.8150   -38.2870 c3         1 XBM       0.186500
      2 C02        -15.7550    13.7850   -36.7610 c          1 XBM       0.660100
      3 N01        -16.3150    14.8760   -36.2180 ns         1 XBM      -0.547900
      4 O01        -15.3080    12.8460   -36.1230 o          1 XBM      -0.600100
      5 C03        -16.3750    15.1330   -34.8030 c3         1 XBM       0.031700
      6 C04        -17.8090    15.5120   -34.4360 c          1 XBM       0.659100
      7 O02        -18.6160    15.9120   -35.2530 o          1 XBM      -0.568100
      8 N02        -18.0600    15.4140   -33.1180 ns         1 XBM      -0.451400
      9 O03        -19.3270    15.6060   -32.6550 oh         1 XBM      -0.385100
     10 C05        -15.3720    16.2210   -34.3570 c3         1 XBM      -0.066700
     11 C06        -13.9430    15.7960   -34.6770 c3         1 XBM      -0.093600
     12 C07        -15.6720    17.5910   -34.9560 c3         1 XBM      -0.093600
     13 C08        -16.0450    12.4710   -38.8980 c3         1 XBM      -0.040100
     14 C09        -16.0540    12.5210   -40.4000 ca         1 XBM      -0.093300
     15 C10        -17.1990    12.9260   -41.0830 ca         1 XBM      -0.126500
     16 C11        -17.2130    12.9980   -42.4680 ca         1 XBM      -0.124000
     17 C12        -16.0740    12.6720   -43.1920 ca         1 XBM      -0.125000
     18 C13        -14.9260    12.2720   -42.5230 ca         1 XBM      -0.124000
     19 C14        -14.9190    12.1960   -41.1370 ca         1 XBM      -0.126500
     20 N03        -14.2750    14.1530   -38.6110 n7         1 XBM      -0.887100
     21 S01        -13.7760    15.6060   -39.1440 sy         1 XBM       1.339200
     22 O04        -14.7490    16.5890   -38.6980 o          1 XBM      -0.609300
     23 O05        -12.3740    15.7380   -38.7920 o          1 XBM      -0.609300
     24 C15        -13.8580    15.5440   -40.9220 ca         1 XBM      -0.272500
     25 C16        -12.7460    15.1050   -41.6250 ca         1 XBM      -0.024500
     26 C17        -12.8340    15.0390   -43.0040 ca         1 XBM       0.013900
     27 C18        -13.9870    15.4050   -43.6790 ca         1 XBM      -0.067000
     28 CL01       -11.4790    14.4680   -43.9100 cl         1 XBM      -0.090400
     29 C19        -15.0760    15.8340   -42.9390 ca         1 XBM       0.013900
     30 C20        -15.0340    15.9100   -41.5570 ca         1 XBM      -0.024500
     31 CL02       -16.5230    16.2780   -43.7640 cl         1 XBM      -0.090400
     32 H1         -16.3060    14.5850   -38.6990 h1         1 XBM       0.076700
     33 H2         -16.6810    15.5870   -36.8330 hn         1 XBM       0.344500
     34 H3         -16.1090    14.2040   -34.2920 h1         1 XBM       0.090700
     35 H4         -17.4530    14.9100   -32.4870 hn         1 XBM       0.338500
     36 H5         -19.3610    16.5170   -32.3330 ho         1 XBM       0.408000
     37 H6         -15.4640    16.2960   -33.2690 hc         1 XBM       0.045700
     38 H7         -13.7070    14.8200   -34.2510 hc         1 XBM       0.043200
     39 H8         -13.7700    15.7480   -35.7530 hc         1 XBM       0.043200
     40 H9         -13.2370    16.5190   -34.2660 hc         1 XBM       0.043200
     41 H10        -14.9480    18.3200   -34.5930 hc         1 XBM       0.043200
     42 H11        -15.5950    17.5790   -36.0450 hc         1 XBM       0.043200
     43 H12        -16.6630    17.9620   -34.6910 hc         1 XBM       0.043200
     44 H13        -17.0380    12.2120   -38.5260 hc         1 XBM       0.072700
     45 H14        -15.3630    11.6960   -38.5410 hc         1 XBM       0.072700
     46 H15        -18.0910    13.1820   -40.5230 ha         1 XBM       0.129500
     47 H16        -18.1120    13.3110   -42.9830 ha         1 XBM       0.135000
     48 H17        -16.0790    12.7350   -44.2730 ha         1 XBM       0.134000
     49 H18        -14.0320    12.0220   -43.0800 ha         1 XBM       0.135000
     50 H19        -14.0200    11.8720   -40.6250 ha         1 XBM       0.129500
     51 H20        -13.5810    13.4150   -38.6150 hn         1 XBM       0.461800
     52 H21        -11.8350    14.8210   -41.1190 ha         1 XBM       0.170500
     53 H22        -14.0390    15.3470   -44.7580 ha         1 XBM       0.164000
     54 H23        -15.8940    16.2560   -41.0020 ha         1 XBM       0.170500
@<TRIPOS>BOND
     1     1     2 1   
     2     1    13 1   
     3     1    20 1   
     4     1    32 1   
     5     2     3 1   
     6     2     4 2   
     7     3     5 1   
     8     3    33 1   
     9     5     6 1   
    10     5    10 1   
    11     5    34 1   
    12     6     7 2   
    13     6     8 1   
    14     8     9 1   
    15     8    35 1   
    16     9    36 1   
    17    10    11 1   
    18    10    12 1   
    19    10    37 1   
    20    11    38 1   
    21    11    39 1   
    22    11    40 1   
    23    12    41 1   
    24    12    42 1   
    25    12    43 1   
    26    13    14 1   
    27    13    44 1   
    28    13    45 1   
    29    14    15 ar  
    30    14    19 ar  
    31    15    16 ar  
    32    15    46 1   
    33    16    17 ar  
    34    16    47 1   
    35    17    18 ar  
    36    17    48 1   
    37    18    19 ar  
    38    18    49 1   
    39    19    50 1   
    40    20    21 1   
    41    20    51 1   
    42    21    22 2   
    43    21    23 2   
    44    21    24 1   
    45    24    25 ar  
    46    24    30 ar  
    47    25    26 ar  
    48    25    52 1   
    49    26    27 ar  
    50    26    28 1   
    51    27    29 ar  
    52    27    53 1   
    53    29    30 ar  
    54    29    31 1   
    55    30    54 1   
@<TRIPOS>SUBSTRUCTURE
     1 XBM         1 TEMP              0 ****  ****    0 ROOT
