@<TRIPOS>MOLECULE
XBM
   54    55     1     0     0
SMALL
No Charge or Current Charge


@<TRIPOS>ATOM
      1 C01        -14.9950    13.7020   -38.3710 c3         1 XBM       0.186500
      2 C02        -15.1890    13.8700   -36.8230 c          1 XBM       0.593100
      3 N01        -16.1380    14.7970   -36.4330 ns         1 XBM      -0.480900
      4 O01        -14.5210    13.2450   -36.0080 o          1 XBM      -0.600100
      5 C03        -16.4750    15.1430   -35.0300 c3         1 XBM       0.031700
      6 C04        -18.0160    15.3440   -34.8860 c          1 XBM       0.592100
      7 O02        -18.7670    15.4310   -35.8530 o          1 XBM      -0.568100
      8 N02        -18.4870    15.4200   -33.5780 ns         1 XBM      -0.384400
      9 O03        -19.9050    15.3420   -33.2900 oh         1 XBM      -0.424100
     10 C05        -15.6670    16.3820   -34.5240 c3         1 XBM      -0.066700
     11 C06        -14.1630    16.0750   -34.3350 c3         1 XBM      -0.093600
     12 C07        -15.8710    17.6400   -35.4050 c3         1 XBM      -0.093600
     13 C08        -15.6670    12.4090   -38.8860 c3         1 XBM      -0.040100
     14 C09        -15.8070    12.4040   -40.4080 ca         1 XBM      -0.093300
     15 C10        -16.7990    13.1890   -41.0290 ca         1 XBM      -0.108500
     16 C11        -16.9190    13.2040   -42.4290 ca         1 XBM      -0.106000
     17 C12        -16.0500    12.4320   -43.2180 ca         1 XBM      -0.107000
     18 C13        -15.0560    11.6500   -42.6050 ca         1 XBM      -0.106000
     19 C14        -14.9340    11.6360   -41.2050 ca         1 XBM      -0.108500
     20 N03        -13.5580    13.7000   -38.7880 n7         1 XBM      -0.942300
     21 S01        -12.8490    15.1640   -39.1170 sy         1 XBM       1.197600
     22 O04        -13.3140    16.0870   -38.0820 o          1 XBM      -0.538500
     23 O05        -11.4340    14.8500   -39.3170 o          1 XBM      -0.538500
     24 C15        -13.6120    15.5170   -40.7010 ca         1 XBM      -0.272500
     25 C16        -13.1660    14.8410   -41.8570 ca         1 XBM      -0.006500
     26 C17        -13.7860    15.0800   -43.0960 ca         1 XBM       0.105500
     27 C18        -14.8590    15.9810   -43.1860 ca         1 XBM      -0.049000
     28 Cl01       -13.2200    14.2430   -44.5370 cl         1 XBM      -0.182000
     29 C19        -15.3110    16.6490   -42.0360 ca         1 XBM       0.105500
     30 C20        -14.6900    16.4240   -40.7950 ca         1 XBM      -0.006500
     31 Cl02       -16.6650    17.7660   -42.1480 cl         1 XBM      -0.182000
     32 H1         -15.5300    14.5350   -38.8470 h1         1 XBM       0.076700
     33 H2         -16.6600    15.2590   -37.1700 hn         1 XBM       0.344500
     34 H3         -16.2290    14.2860   -34.3890 h1         1 XBM       0.090700
     35 H4         -17.8590    15.1990   -32.8050 hn         1 XBM       0.338500
     36 H5         -20.0660    16.1120   -32.6950 ho         1 XBM       0.447000
     37 H6         -16.0460    16.6330   -33.5250 hc         1 XBM       0.045700
     38 H7         -14.0220    15.1950   -33.6960 hc         1 XBM       0.043200
     39 H8         -13.6740    15.8850   -35.2970 hc         1 XBM       0.043200
     40 H9         -13.6530    16.9210   -33.8600 hc         1 XBM       0.043200
     41 H10        -15.3590    18.5050   -34.9650 hc         1 XBM       0.043200
     42 H11        -15.4670    17.4880   -36.4130 hc         1 XBM       0.043200
     43 H12        -16.9340    17.8930   -35.4940 hc         1 XBM       0.043200
     44 H13        -16.6620    12.3200   -38.4330 hc         1 XBM       0.072700
     45 H14        -15.0980    11.5370   -38.5390 hc         1 XBM       0.072700
     46 H15        -17.4760    13.7910   -40.4280 ha         1 XBM       0.111500
     47 H16        -17.6860    13.8140   -42.9030 ha         1 XBM       0.117000
     48 H17        -16.1410    12.4450   -44.3020 ha         1 XBM       0.116000
     49 H18        -14.3770    11.0590   -43.2160 ha         1 XBM       0.117000
     50 H19        -14.1560    11.0370   -40.7400 ha         1 XBM       0.111500
     51 H20        -12.9900    13.3860   -38.0010 hn         1 XBM       0.517000
     52 H21        -12.3490    14.1240   -41.7990 ha         1 XBM       0.152500
     53 H22        -15.3410    16.1590   -44.1430 ha         1 XBM       0.146000
     54 H23        -15.0570    16.9480   -39.9140 ha         1 XBM       0.152500
@<TRIPOS>BOND
     1     1     2 1   
     2     1    13 1   
     3     1    20 1   
     4     1    32 1   
     5     2     3 1   
     6     2     4 2   
     7     3     5 1   
     8     3    33 1   
     9     5     6 1   
    10     5    10 1   
    11     5    34 1   
    12     6     7 2   
    13     6     8 1   
    14     8     9 1   
    15     8    35 1   
    16     9    36 1   
    17    10    11 1   
    18    10    12 1   
    19    10    37 1   
    20    11    38 1   
    21    11    39 1   
    22    11    40 1   
    23    12    41 1   
    24    12    42 1   
    25    12    43 1   
    26    13    14 1   
    27    13    44 1   
    28    13    45 1   
    29    14    15 ar  
    30    14    19 ar  
    31    15    16 ar  
    32    15    46 1   
    33    16    17 ar  
    34    16    47 1   
    35    17    18 ar  
    36    17    48 1   
    37    18    19 ar  
    38    18    49 1   
    39    19    50 1   
    40    20    21 1   
    41    20    51 1   
    42    21    22 2   
    43    21    23 2   
    44    21    24 1   
    45    24    25 ar  
    46    24    30 ar  
    47    25    26 ar  
    48    25    52 1   
    49    26    27 ar  
    50    26    28 1   
    51    27    29 ar  
    52    27    53 1   
    53    29    30 ar  
    54    29    31 1   
    55    30    54 1   
@<TRIPOS>SUBSTRUCTURE
     1 XBM         1 TEMP              0 ****  ****    0 ROOT
