@<TRIPOS>MOLECULE
XBQ
   74    77     1     0     0
SMALL
No Charge or Current Charge


@<TRIPOS>ATOM
      1 C13         28.6760     1.3730     3.9690 c3         1 XBQ       0.050700
      2 C20         27.3900     3.0570    -0.2240 ca         1 XBQ      -0.111500
      3 C21         27.1690     2.6530     1.1040 ca         1 XBQ      -0.104000
      4 C18         29.3820     4.2680     0.4720 ca         1 XBQ      -0.111500
      5 C16         28.0540     3.0560     2.1230 ca         1 XBQ      -0.089300
      6 C19         28.4970     3.8620    -0.5410 ca         1 XBQ      -0.112000
      7 C26         31.7410     5.2340     4.7080 ca         1 XBQ       0.137100
      8 C10         29.6800    -0.3020    -2.4780 c6         1 XBQ       0.181800
      9 C11         29.8610     0.2200     1.4200 c3         1 XBQ       0.014000
     10 C14         27.8320     2.6150     3.5640 c3         1 XBQ      -0.046100
     11 C15         28.6830     1.1700     5.5250 c          1 XBQ       0.591100
     12 C17         29.1580     3.8690     1.8010 ca         1 XBQ      -0.104000
     13 C22         30.1900     3.1850     5.9020 ca         1 XBQ      -0.097000
     14 C23         28.9040     2.1770     7.7870 c3         1 XBQ       0.091300
     15 C24         29.8520     4.5410     6.0860 ca         1 XBQ      -0.077500
     16 C25         30.6330     5.5560     5.5070 ca         1 XBQ      -0.159500
     17 C27         32.0610     3.8790     4.4840 ca         1 XBQ      -0.159500
     18 C28         31.2760     2.8650     5.0610 ca         1 XBQ      -0.077500
     19 C29         33.5830     6.0470     3.2810 c3         1 XBQ       0.150900
     20 C01         34.2980     0.3950    -1.3150 ca         1 XBQ       0.037500
     21 C02         35.0170     0.5900    -0.1250 ca         1 XBQ      -0.212000
     22 C03         34.5120     1.4260     0.8750 ca         1 XBQ       0.366000
     23 C04         33.2890     2.0810     0.6920 ca         1 XBQ      -0.212000
     24 C05         32.5600     1.8960    -0.4940 ca         1 XBQ       0.037500
     25 C06         33.0580     1.0370    -1.4960 ca         1 XBQ      -0.381500
     26 C07         31.5910    -1.5390    -1.6410 c6         1 XBQ       0.109800
     27 C08         31.2630    -1.1570    -0.1710 c          1 XBQ       0.543000
     28 C09         29.3900     0.3170    -1.0800 c6         1 XBQ       0.076000
     29 N02         31.1270    -0.5660    -2.6820 n3         1 XBQ      -0.711500
     30 N03         30.1780    -0.2690     0.0460 n          1 XBQ      -0.385800
     31 N04         28.1840     0.1460     3.2870 ns         1 XBQ      -0.502900
     32 N05         29.2770     2.1650     6.3540 n          1 XBQ      -0.235400
     33 O04         28.1110     0.2040     6.0280 o          1 XBQ      -0.589100
     34 O05         32.4620     6.2720     4.1550 os         1 XBQ      -0.345100
     35 S01         32.1290     0.7880    -3.0190 sy         1 XBQ       1.189600
     36 H1          29.7100     1.5440     3.6640 h1         1 XBQ       0.076700
     37 H2          26.7050     2.7430    -1.0090 ha         1 XBQ       0.112500
     38 H3          26.3130     2.0250     1.3390 ha         1 XBQ       0.119000
     39 H4          30.2390     4.8920     0.2290 ha         1 XBQ       0.112500
     40 H5          28.6700     4.1710    -1.5700 ha         1 XBQ       0.114000
     41 H6          29.2660     0.3450    -3.2660 h1         1 XBQ       0.085200
     42 H7          29.1250    -1.2490    -2.5460 h1         1 XBQ       0.085200
     43 H8          30.6730    -0.0190     2.1150 h1         1 XBQ       0.081200
     44 H9          29.7940     1.3100     1.3790 h1         1 XBQ       0.081200
     45 H10         28.0670     3.4560     4.2240 hc         1 XBQ       0.065700
     46 H11         26.7710     2.3980     3.7390 hc         1 XBQ       0.065700
     47 H12         29.8470     4.1890     2.5800 ha         1 XBQ       0.119000
     48 H13         29.4680     2.9510     8.3230 h1         1 XBQ       0.050033
     49 H14         27.8310     2.3810     7.8890 h1         1 XBQ       0.050033
     50 H15         29.1330     1.2040     8.2410 h1         1 XBQ       0.050033
     51 H16         28.9750     4.8130     6.6690 ha         1 XBQ       0.128500
     52 H17         30.3690     6.5980     5.6640 ha         1 XBQ       0.128000
     53 H18         32.9050     3.5940     3.8650 ha         1 XBQ       0.128000
     54 H19         31.5370     1.8250     4.8770 ha         1 XBQ       0.128500
     55 H20         34.0040     7.0040     2.9480 h1         1 XBQ       0.042033
     56 H21         34.3740     5.4880     3.7960 h1         1 XBQ       0.042033
     57 H22         33.2750     5.4830     2.3900 h1         1 XBQ       0.042033
     58 H23         34.7060    -0.2590    -2.0870 ha         1 XBQ       0.134500
     59 H24         35.9700     0.0860     0.0130 ha         1 XBQ       0.116500
     60 H25         32.8970     2.7360     1.4630 ha         1 XBQ       0.116500
     61 H26         31.6130     2.4180    -0.6240 ha         1 XBQ       0.134500
     62 H27         31.0940    -2.5070    -1.7940 h1         1 XBQ       0.102700
     63 H28         32.6710    -1.7300    -1.7050 h1         1 XBQ       0.102700
     64 H29         29.6050     1.3920    -1.1240 h1         1 XBQ       0.057700
     65 H30         28.3160     0.2200    -0.8660 h1         1 XBQ       0.057700
     66 H31         36.1820     1.2790     2.0740 hn         1 XBQ       0.471000
     67 H32         34.9580     2.3590     2.6630 hn         1 XBQ       0.471000
     68 H33         27.3890    -0.3270     3.7030 hn         1 XBQ       0.336500
     69 C12         28.5490    -0.3190     2.0420 c          1 XBQ       0.589100
     70 O02         31.9180    -1.6150     0.7580 o          1 XBQ      -0.561000
     71 O03         27.8700    -1.1880     1.5130 o          1 XBQ      -0.597100
     72 N01         35.2220     1.6130     2.0250 nv         1 XBQ      -1.105000
     73 O01         33.0320     0.3620    -4.0930 o          1 XBQ      -0.543000
     74 O06         31.2380     1.9410    -3.1860 o          1 XBQ      -0.543000
@<TRIPOS>BOND
     1     1    10 1   
     2     1    11 1   
     3     1    31 1   
     4     1    36 1   
     5     2     3 ar  
     6     2     6 ar  
     7     2    37 1   
     8     3     5 ar  
     9     3    38 1   
    10     4     6 ar  
    11     4    12 ar  
    12     4    39 1   
    13     5    10 1   
    14     5    12 ar  
    15     6    40 1   
    16     7    16 ar  
    17     7    17 ar  
    18     7    34 1   
    19     8    28 1   
    20     8    29 1   
    21     8    41 1   
    22     8    42 1   
    23     9    30 1   
    24     9    43 1   
    25     9    44 1   
    26     9    69 1   
    27    10    45 1   
    28    10    46 1   
    29    11    32 1   
    30    11    33 2   
    31    12    47 1   
    32    13    15 ar  
    33    13    18 ar  
    34    13    32 1   
    35    14    32 1   
    36    14    48 1   
    37    14    49 1   
    38    14    50 1   
    39    15    16 ar  
    40    15    51 1   
    41    16    52 1   
    42    17    18 ar  
    43    17    53 1   
    44    18    54 1   
    45    19    34 1   
    46    19    55 1   
    47    19    56 1   
    48    19    57 1   
    49    20    21 ar  
    50    20    25 ar  
    51    20    58 1   
    52    21    22 ar  
    53    21    59 1   
    54    22    23 ar  
    55    22    72 1   
    56    23    24 ar  
    57    23    60 1   
    58    24    25 ar  
    59    24    61 1   
    60    25    35 1   
    61    26    27 1   
    62    26    29 1   
    63    26    62 1   
    64    26    63 1   
    65    27    30 1   
    66    27    70 2   
    67    28    30 1   
    68    28    64 1   
    69    28    65 1   
    70    29    35 1   
    71    31    68 1   
    72    31    69 1   
    73    35    73 2   
    74    35    74 2   
    75    66    72 1   
    76    67    72 1   
    77    69    71 2   
@<TRIPOS>SUBSTRUCTURE
     1 XBQ         1 TEMP              0 ****  ****    0 ROOT
