@<TRIPOS>MOLECULE
XBQ
   74    77     1     0     0
SMALL
abcg2


@<TRIPOS>ATOM
      1 C13         28.7060     1.4250     3.8050 c3         1 XBQ       0.050700
      2 C20         27.8530     3.3900    -0.2170 ca         1 XBQ      -0.111500
      3 C21         27.4700     2.9670     1.0530 ca         1 XBQ      -0.104000
      4 C18         29.7880     4.4630     0.7270 ca         1 XBQ      -0.111500
      5 C16         28.2460     3.2770     2.1690 ca         1 XBQ      -0.089300
      6 C19         29.0160     4.1340    -0.3840 ca         1 XBQ      -0.112000
      7 C26         31.9340     4.9290     5.2100 ca         1 XBQ       0.137100
      8 C10         29.8880    -0.5710    -2.3690 c6         1 XBQ       0.181800
      9 C11         29.9590     0.3500     1.3160 c3         1 XBQ       0.014000
     10 C14         27.9140     2.7300     3.5280 c3         1 XBQ      -0.046100
     11 C15         28.5910     1.0470     5.2880 c          1 XBQ       0.591100
     12 C17         29.4060     4.0370     1.9920 ca         1 XBQ      -0.104000
     13 C22         30.2600     2.7780     5.8160 ca         1 XBQ      -0.097000
     14 C23         29.2400     1.3950     7.5940 c3         1 XBQ       0.091300
     15 C24         29.8900     4.0790     6.1620 ca         1 XBQ      -0.077500
     16 C25         30.7170     5.1450     5.8650 ca         1 XBQ      -0.159500
     17 C27         32.3080     3.6320     4.8600 ca         1 XBQ      -0.159500
     18 C28         31.4720     2.5640     5.1770 ca         1 XBQ      -0.077500
     19 C29         33.9530     5.8830     4.3430 c3         1 XBQ       0.150900
     20 C01         33.6270     0.5100    -0.6740 ca         1 XBQ       0.037500
     21 C02         33.8260     1.4420     0.3240 ca         1 XBQ      -0.212000
     22 C03         33.3340     2.7540     0.1890 ca         1 XBQ       0.366000
     23 C04         32.6630     3.1030    -0.9980 ca         1 XBQ      -0.212000
     24 C05         32.4560     2.1670    -1.9900 ca         1 XBQ       0.037500
     25 C06         32.9280     0.8620    -1.8320 ca         1 XBQ      -0.381500
     26 C07         31.4160    -2.0520    -1.2350 c6         1 XBQ       0.109800
     27 C08         31.0620    -1.4000     0.0920 c          1 XBQ       0.543000
     28 C09         29.7040     0.2970    -1.1330 c6         1 XBQ       0.076000
     29 N02         31.2050    -1.2160    -2.4140 n3         1 XBQ      -0.711500
     30 N03         30.3070    -0.2860     0.0670 n          1 XBQ      -0.385800
     31 N04         28.1860     0.3220     3.0240 ns         1 XBQ      -0.502900
     32 N05         29.3970     1.6880     6.1660 n          1 XBQ      -0.235400
     33 O04         27.7670     0.2070     5.6480 o          1 XBQ      -0.589100
     34 O05         32.6780     6.0390     4.9660 os         1 XBQ      -0.345100
     35 S01         32.5050    -0.3720    -3.0020 sy         1 XBQ       1.189600
     36 H1          29.7480     1.5840     3.5520 h1         1 XBQ       0.076700
     37 H2          27.2480     3.1290    -1.0760 ha         1 XBQ       0.112500
     38 H3          26.5720     2.3750     1.1780 ha         1 XBQ       0.119000
     39 H4          30.6940     5.0430     0.6070 ha         1 XBQ       0.112500
     40 H5          29.3220     4.4520    -1.3730 ha         1 XBQ       0.114000
     41 H6          29.7400     0.0240    -3.2650 h1         1 XBQ       0.085200
     42 H7          29.1570    -1.3810    -2.3760 h1         1 XBQ       0.085200
     43 H8          30.7570     0.1870     2.0390 h1         1 XBQ       0.081200
     44 H9          29.8710     1.4230     1.1490 h1         1 XBQ       0.081200
     45 H10         28.1630     3.4640     4.2930 hc         1 XBQ       0.065700
     46 H11         26.8510     2.5030     3.6150 hc         1 XBQ       0.065700
     47 H12         30.0200     4.2800     2.8510 ha         1 XBQ       0.119000
     48 H13         30.1590     1.6750     8.1030 h1         1 XBQ       0.050033
     49 H14         28.4060     1.9540     8.0230 h1         1 XBQ       0.050033
     50 H15         29.0560     0.3320     7.7270 h1         1 XBQ       0.050033
     51 H16         28.9450     4.2510     6.6630 ha         1 XBQ       0.128500
     52 H17         30.4340     6.1560     6.1290 ha         1 XBQ       0.128000
     53 H18         33.2410     3.4390     4.3520 ha         1 XBQ       0.128000
     54 H19         31.7700     1.5560     4.9180 ha         1 XBQ       0.128500
     55 H20         34.3810     6.8800     4.2900 h1         1 XBQ       0.042033
     56 H21         34.6010     5.2340     4.9350 h1         1 XBQ       0.042033
     57 H22         33.8480     5.4770     3.3360 h1         1 XBQ       0.042033
     58 H23         34.0130    -0.4920    -0.5520 ha         1 XBQ       0.134500
     59 H24         34.3620     1.1660     1.2240 ha         1 XBQ       0.116500
     60 H25         32.3010     4.1150    -1.1250 ha         1 XBQ       0.116500
     61 H26         31.9220     2.4420    -2.8890 ha         1 XBQ       0.134500
     62 H27         30.7920    -2.9440    -1.3340 h1         1 XBQ       0.102700
     63 H28         32.4490    -2.3840    -1.1850 h1         1 XBQ       0.102700
     64 H29         30.1320     1.2890    -1.2810 h1         1 XBQ       0.057700
     65 H30         28.6360     0.4280    -0.9520 h1         1 XBQ       0.057700
     66 H31         34.1500     3.4660     1.9250 hn         1 XBQ       0.471000
     67 H32         33.3180     4.6310     1.0050 hn         1 XBQ       0.471000
     68 H33         27.3430    -0.1020     3.3900 hn         1 XBQ       0.336500
     69 C12         28.6500    -0.2100     1.8790 c          1 XBQ       0.589100
     70 O02         31.4650    -1.9150     1.1370 o          1 XBQ      -0.561000
     71 O03         28.0560    -1.1250     1.3120 o          1 XBQ      -0.597100
     72 N01         33.4700     3.6560     1.2060 nv         1 XBQ      -1.105000
     73 O01         33.5840    -1.3310    -3.0730 o          1 XBQ      -0.543000
     74 O06         32.0460     0.2710    -4.2110 o          1 XBQ      -0.543000
@<TRIPOS>BOND
     1     1    10 1   
     2     1    11 1   
     3     1    31 1   
     4     1    36 1   
     5     2     3 ar  
     6     2     6 ar  
     7     2    37 1   
     8     3     5 ar  
     9     3    38 1   
    10     4     6 ar  
    11     4    12 ar  
    12     4    39 1   
    13     5    10 1   
    14     5    12 ar  
    15     6    40 1   
    16     7    16 ar  
    17     7    17 ar  
    18     7    34 1   
    19     8    28 1   
    20     8    29 1   
    21     8    41 1   
    22     8    42 1   
    23     9    30 1   
    24     9    43 1   
    25     9    44 1   
    26     9    69 1   
    27    10    45 1   
    28    10    46 1   
    29    11    32 1   
    30    11    33 2   
    31    12    47 1   
    32    13    15 ar  
    33    13    18 ar  
    34    13    32 1   
    35    14    32 1   
    36    14    48 1   
    37    14    49 1   
    38    14    50 1   
    39    15    16 ar  
    40    15    51 1   
    41    16    52 1   
    42    17    18 ar  
    43    17    53 1   
    44    18    54 1   
    45    19    34 1   
    46    19    55 1   
    47    19    56 1   
    48    19    57 1   
    49    20    21 ar  
    50    20    25 ar  
    51    20    58 1   
    52    21    22 ar  
    53    21    59 1   
    54    22    23 ar  
    55    22    72 1   
    56    23    24 ar  
    57    23    60 1   
    58    24    25 ar  
    59    24    61 1   
    60    25    35 1   
    61    26    27 1   
    62    26    29 1   
    63    26    62 1   
    64    26    63 1   
    65    27    30 1   
    66    27    70 2   
    67    28    30 1   
    68    28    64 1   
    69    28    65 1   
    70    29    35 1   
    71    31    68 1   
    72    31    69 1   
    73    35    73 2   
    74    35    74 2   
    75    66    72 1   
    76    67    72 1   
    77    69    71 2   
@<TRIPOS>SUBSTRUCTURE
     1 XBQ         1 TEMP              0 ****  ****    0 ROOT
