@<TRIPOS>MOLECULE
XBR
   43    46     1     0     0
SMALL
No Charge or Current Charge


@<TRIPOS>ATOM
      1 C1          -5.9830     0.5620    -0.7830 ca         1 XBR      -0.153000
      2 C2          -5.9670    -0.7530    -0.2590 ca         1 XBR      -0.104000
      3 C3          -4.7750    -1.2950     0.2680 ca         1 XBR      -0.131000
      4 C4          -3.6230    -0.4960     0.2550 ca         1 XBR      -0.047200
      5 C5          -3.6440     0.7740    -0.2520 ca         1 XBR      -0.085800
      6 C6          -4.8080     1.3440    -0.7840 ca         1 XBR      -0.060000
      7 C7          -2.3230     1.3130    -0.1180 cc         1 XBR      -0.127400
      8 C8          -1.5500     0.3170     0.4620 cd         1 XBR      -0.055300
      9 N9          -2.3570    -0.8200     0.7120 na         1 XBR      -0.218700
     10 C11         -0.0670     0.4730     0.7770 c6         1 XBR       0.296000
     11 N12          0.5290     1.6410     0.0390 n3         1 XBR      -0.736600
     12 C13         -0.3510     2.8500     0.1350 c6         1 XBR       0.173800
     13 C14         -1.7390     2.6360    -0.5280 c6         1 XBR      -0.003200
     14 C15          1.9380     1.8970     0.4520 c3         1 XBR       0.180800
     15 C16          2.6980     2.9120    -0.4250 c3         1 XBR      -0.206400
     16 C17          4.1700     2.9060    -0.0030 c          1 XBR       0.718000
     17 O18          4.9270     2.1200    -0.5510 o          1 XBR      -0.739000
     18 O19          4.5140     3.6600     0.8950 o          1 XBR      -0.739000
     19 C20          0.6790    -0.8430     0.5070 ca         1 XBR      -0.073300
     20 C21          1.2330    -1.5820     1.5720 ca         1 XBR      -0.081000
     21 C22          1.9100    -2.7890     1.3200 ca         1 XBR      -0.110500
     22 C23          2.0350    -3.2620     0.0040 ca         1 XBR       0.121000
     23 C24          1.4850    -2.5330    -1.0620 ca         1 XBR      -0.110500
     24 C25          0.8080    -1.3260    -0.8120 ca         1 XBR      -0.081000
     25 Cl           2.8810    -4.7720    -0.3090 cl         1 XBR      -0.228000
     26 H1          -6.9050     0.9720    -1.1880 ha         1 XBR       0.101000
     27 H2          -6.8760    -1.3490    -0.2620 ha         1 XBR       0.099000
     28 H6          -4.8060     2.3550    -1.1840 ha         1 XBR       0.111000
     29 H3          -4.7520    -2.3040     0.6720 ha         1 XBR       0.106000
     30 H9          -2.0610    -1.6980     1.1250 hn         1 XBR       0.349000
     31 H141        -1.6250     2.6710    -1.6200 hc         1 XBR       0.046700
     32 H142        -2.4080     3.4640    -0.2590 hc         1 XBR       0.046700
     33 H11          0.0060     0.6790     1.8550 h1         1 XBR       0.036700
     34 H131        -0.5010     3.1170     1.1920 h1         1 XBR       0.038700
     35 H132         0.1090     3.7210    -0.3500 h1         1 XBR       0.038700
     36 H151         1.9660     2.2400     1.4950 h1         1 XBR       0.040200
     37 H152         2.5060     0.9570     0.4150 h1         1 XBR       0.040200
     38 H161         2.5900     2.5650    -1.4600 hc         1 XBR       0.024700
     39 H162         2.2580     3.8960    -0.2310 hc         1 XBR       0.024700
     40 H21          1.1410    -1.2220     2.5950 ha         1 XBR       0.127500
     41 H25          0.3840    -0.7620    -1.6390 ha         1 XBR       0.127500
     42 H22          2.3370    -3.3560     2.1430 ha         1 XBR       0.122500
     43 H24          1.5830    -2.9010    -2.0800 ha         1 XBR       0.122500
@<TRIPOS>BOND
     1     1     2 ar  
     2     1     6 ar  
     3     1    26 1   
     4     2     3 ar  
     5     2    27 1   
     6     3     4 ar  
     7     3    29 1   
     8     4     5 ar  
     9     4     9 1   
    10     5     6 ar  
    11     5     7 1   
    12     6    28 1   
    13     7     8 2   
    14     7    13 1   
    15     8     9 1   
    16     8    10 1   
    17     9    30 1   
    18    10    11 1   
    19    10    19 1   
    20    10    33 1   
    21    11    12 1   
    22    11    14 1   
    23    12    13 1   
    24    12    34 1   
    25    12    35 1   
    26    13    31 1   
    27    13    32 1   
    28    14    15 1   
    29    14    36 1   
    30    14    37 1   
    31    15    16 1   
    32    15    38 1   
    33    15    39 1   
    34    16    17 1   
    35    16    18 1   
    36    19    20 ar  
    37    19    24 ar  
    38    20    21 ar  
    39    20    40 1   
    40    21    22 ar  
    41    21    42 1   
    42    22    23 ar  
    43    22    25 1   
    44    23    24 ar  
    45    23    43 1   
    46    24    41 1   
@<TRIPOS>SUBSTRUCTURE
     1 XBR         1 TEMP              0 ****  ****    0 ROOT
