@<TRIPOS>MOLECULE
XBT
   22    22     1     0     0
SMALL
No Charge or Current Charge


@<TRIPOS>ATOM
      1 S1           1.3250    -0.5340     1.2060 ss         1 XBT      -0.402200
      2 C2           0.2080     0.1730     0.0160 c2         1 XBT       0.483200
      3 N3           0.6360     1.0830    -0.7940 n2         1 XBT      -0.573900
      4 C4           2.0650     1.3940    -0.4670 c5         1 XBT       0.095800
      5 C5           2.6960     0.1370     0.1870 c5         1 XBT       0.031600
      6 C6          -1.2260    -0.3400     0.0050 c3         1 XBT      -0.088000
      7 C7          -2.2340     0.7900     0.3590 c3         1 XBT      -0.067400
      8 C8          -3.6830     0.3110     0.5930 c3         1 XBT      -0.090100
      9 C9          -1.5580    -1.0500    -1.3320 c3         1 XBT      -0.088100
     10 H4           2.6180     1.6680    -1.3770 h1         1 XBT       0.074200
     11 H5           3.5810     0.3670     0.7960 h1         1 XBT       0.078200
     12 H6          -1.3110    -1.1000     0.7920 hc         1 XBT       0.064700
     13 H7          -1.8890     1.2930     1.2710 hc         1 XBT       0.051700
     14 H7A         -2.2310     1.5480    -0.4340 hc         1 XBT       0.051700
     15 H8          -4.3090     1.1480     0.9260 hc         1 XBT       0.032700
     16 H8A         -4.1220    -0.0900    -0.3280 hc         1 XBT       0.032700
     17 H8B         -3.7160    -0.4680     1.3640 hc         1 XBT       0.032700
     18 H9          -0.8020    -1.8130    -1.5580 hc         1 XBT       0.042700
     19 H9A         -2.5310    -1.5520    -1.2860 hc         1 XBT       0.042700
     20 H9B         -1.5770    -0.3340    -2.1630 hc         1 XBT       0.042700
     21 H12          2.1090     2.2580     0.2120 h1         1 XBT       0.074200
     22 H13          2.9750    -0.6020    -0.5760 h1         1 XBT       0.078200
@<TRIPOS>BOND
     1     1     2 1   
     2     1     5 1   
     3     2     3 2   
     4     2     6 1   
     5     3     4 1   
     6     4     5 1   
     7     4    10 1   
     8     4    21 1   
     9     5    11 1   
    10     5    22 1   
    11     6     7 1   
    12     6     9 1   
    13     6    12 1   
    14     7     8 1   
    15     7    13 1   
    16     7    14 1   
    17     8    15 1   
    18     8    16 1   
    19     8    17 1   
    20     9    18 1   
    21     9    19 1   
    22     9    20 1   
@<TRIPOS>SUBSTRUCTURE
     1 XBT         1 TEMP              0 ****  ****    0 ROOT
