@<TRIPOS>MOLECULE
XBT
   22    22     1     0     0
SMALL
bcc


@<TRIPOS>ATOM
      1 S1           1.4470    -1.0140     0.5420 ss         1 XBT      -0.354300
      2 C2           0.1790     0.1450     0.0660 c2         1 XBT       0.483200
      3 N3           0.5600     1.2900    -0.2990 n2         1 XBT      -0.573900
      4 C4           1.9940     1.4740    -0.2090 c5         1 XBT       0.095800
      5 C5           2.7050     0.1140    -0.1240 c5         1 XBT      -0.016300
      6 C6          -1.2460    -0.3240     0.1210 c3         1 XBT      -0.088000
      7 C7          -2.2240     0.8470     0.2270 c3         1 XBT      -0.067400
      8 C8          -3.6660     0.4040     0.4370 c3         1 XBT      -0.090100
      9 C9          -1.5250    -1.2190    -1.0910 c3         1 XBT      -0.088100
     10 H4           2.3550     2.0400    -1.0690 h1         1 XBT       0.074200
     11 H5           3.5710     0.1400     0.5330 h1         1 XBT       0.078200
     12 H6          -1.3480    -0.9390     1.0230 hc         1 XBT       0.064700
     13 H7          -1.9220     1.4840     1.0610 hc         1 XBT       0.051700
     14 H7A         -2.1480     1.4650    -0.6710 hc         1 XBT       0.051700
     15 H8          -4.3090     1.2660     0.6180 hc         1 XBT       0.032700
     16 H8A         -4.0690    -0.1230    -0.4280 hc         1 XBT       0.032700
     17 H8B         -3.7540    -0.2590     1.3000 hc         1 XBT       0.032700
     18 H9          -0.7950    -2.0230    -1.1700 hc         1 XBT       0.042700
     19 H9A         -2.5110    -1.6760    -1.0170 hc         1 XBT       0.042700
     20 H9B         -1.4920    -0.6370    -2.0140 hc         1 XBT       0.042700
     21 H12          2.2040     2.0780     0.6790 h1         1 XBT       0.074200
     22 H13          3.0190    -0.2440    -1.1040 h1         1 XBT       0.078200
@<TRIPOS>BOND
     1     1     2 1   
     2     1     5 1   
     3     2     3 2   
     4     2     6 1   
     5     3     4 1   
     6     4     5 1   
     7     4    10 1   
     8     4    21 1   
     9     5    11 1   
    10     5    22 1   
    11     6     7 1   
    12     6     9 1   
    13     6    12 1   
    14     7     8 1   
    15     7    13 1   
    16     7    14 1   
    17     8    15 1   
    18     8    16 1   
    19     8    17 1   
    20     9    18 1   
    21     9    19 1   
    22     9    20 1   
@<TRIPOS>SUBSTRUCTURE
     1 XBT         1 TEMP              0 ****  ****    0 ROOT
