@<TRIPOS>MOLECULE
XBU
   42    44     1     0     0
SMALL
bcc


@<TRIPOS>ATOM
      1 CAI         -2.6610     1.8420    -0.4160 ca         1 XBU      -0.069000
      2 CAJ         -4.0220     2.0960    -0.3610 ca         1 XBU      -0.198000
      3 CAK         -4.9240     1.1640    -0.8680 ca         1 XBU       0.146100
      4 OAN         -6.2390     1.4520    -0.7950 oh         1 XBU      -0.494100
      5 CAL         -4.4410    -0.0120    -1.4360 ca         1 XBU      -0.198000
      6 CAM         -3.0760    -0.2490    -1.4840 ca         1 XBU      -0.069000
      7 CAH         -2.1600     0.6660    -0.9710 ca         1 XBU      -0.134300
      8 CAF         -0.6830     0.3890    -1.0240 c3         1 XBU      -0.006100
      9 CAB         -0.1730    -0.4860     0.1230 c5         1 XBU       0.146000
     10 CAX         -0.3540     0.1900     1.4820 c          1 XBU       0.650100
     11 OAY         -0.1720     1.3690     1.6400 o          1 XBU      -0.525000
     12 OAZ         -0.6530    -0.6640     2.4330 os         1 XBU      -0.392900
     13 CBB         -0.7490    -0.1550     3.7680 c3         1 XBU       0.126700
     14 OAC         -0.8680    -1.7270     0.1270 os         1 XBU      -0.360900
     15 CAD         -0.0140    -2.7460     0.0140 c          1 XBU       0.704800
     16 OAP         -0.3490    -3.8980     0.0100 o          1 XBU      -0.555500
     17 CAE          1.3450    -2.1930    -0.1160 ce         1 XBU       0.016900
     18 OAO          2.4160    -2.9570    -0.2870 oh         1 XBU      -0.450100
     19 CAA          1.2840    -0.8620    -0.0490 cf         1 XBU      -0.124400
     20 CAQ          2.3800     0.0960    -0.2360 ca         1 XBU      -0.078800
     21 CAR          2.9200     0.2730    -1.5110 ca         1 XBU      -0.059000
     22 CAS          3.9530     1.1640    -1.7360 ca         1 XBU      -0.196500
     23 CAT          4.4760     1.9010    -0.6750 ca         1 XBU       0.152100
     24 OAW          5.4790     2.7580    -0.9400 oh         1 XBU      -0.492100
     25 CAU          3.9550     1.7270     0.6040 ca         1 XBU      -0.196500
     26 CAV          2.9180     0.8330     0.8170 ca         1 XBU      -0.059000
     27 H1          -1.9770     2.5840    -0.0230 ha         1 XBU       0.138500
     28 H2          -4.3870     3.0190     0.0710 ha         1 XBU       0.139500
     29 H3          -6.7600     0.7340    -1.1710 ho         1 XBU       0.426000
     30 H4          -5.1280    -0.7450    -1.8460 ha         1 XBU       0.139500
     31 H5          -2.7260    -1.1650    -1.9430 ha         1 XBU       0.138500
     32 H6          -0.4220    -0.1180    -1.9560 hc         1 XBU       0.072200
     33 H7          -0.1160     1.3200    -1.0110 hc         1 XBU       0.072200
     34 H8          -0.9980    -1.0070     4.3920 h1         1 XBU       0.052700
     35 H9           0.1990     0.2720     4.0950 h1         1 XBU       0.052700
     36 H10         -1.5330     0.5970     3.8470 h1         1 XBU       0.052700
     37 H11          2.1670    -3.8910    -0.3090 ho         1 XBU       0.449000
     38 H12          2.5180    -0.2900    -2.3440 ha         1 XBU       0.135000
     39 H13          4.3560     1.2910    -2.7320 ha         1 XBU       0.141500
     40 H14          5.7460     3.2230    -0.1390 ho         1 XBU       0.428000
     41 H15          4.3580     2.2870     1.4400 ha         1 XBU       0.141500
     42 H16          2.5450     0.7030     1.8240 ha         1 XBU       0.135000
@<TRIPOS>BOND
     1     1     2 ar  
     2     1     7 ar  
     3     1    27 1   
     4     2     3 ar  
     5     2    28 1   
     6     3     4 1   
     7     3     5 ar  
     8     4    29 1   
     9     5     6 ar  
    10     5    30 1   
    11     6     7 ar  
    12     6    31 1   
    13     7     8 1   
    14     8     9 1   
    15     8    32 1   
    16     8    33 1   
    17     9    10 1   
    18     9    14 1   
    19     9    19 1   
    20    10    11 2   
    21    10    12 1   
    22    12    13 1   
    23    13    34 1   
    24    13    35 1   
    25    13    36 1   
    26    14    15 1   
    27    15    16 2   
    28    15    17 1   
    29    17    18 1   
    30    17    19 2   
    31    18    37 1   
    32    19    20 1   
    33    20    21 ar  
    34    20    26 ar  
    35    21    22 ar  
    36    21    38 1   
    37    22    23 ar  
    38    22    39 1   
    39    23    24 1   
    40    23    25 ar  
    41    24    40 1   
    42    25    26 ar  
    43    25    41 1   
    44    26    42 1   
@<TRIPOS>SUBSTRUCTURE
     1 XBU         1 TEMP              0 ****  ****    0 ROOT
