@<TRIPOS>MOLECULE
XBU
   42    44     1     0     0
SMALL
No Charge or Current Charge


@<TRIPOS>ATOM
      1 CAI         -2.7900     1.9780    -0.3190 ca         1 XBU      -0.051000
      2 CAJ         -4.1760     2.2090    -0.3490 ca         1 XBU      -0.180000
      3 CAK         -5.0300     1.2900    -0.9730 ca         1 XBU       0.146100
      4 OAN         -6.3720     1.5250    -0.9960 oh         1 XBU      -0.533100
      5 CAL         -4.5010     0.1370    -1.5730 ca         1 XBU      -0.180000
      6 CAM         -3.1150    -0.0970    -1.5450 ca         1 XBU      -0.051000
      7 CAH         -2.2500     0.8180    -0.9110 ca         1 XBU      -0.134300
      8 CAF         -0.7410     0.5660    -0.8890 c3         1 XBU      -0.006100
      9 CAB         -0.2450    -0.4480     0.1870 c5         1 XBU       0.169200
     10 CAX         -0.4030     0.0960     1.6560 c          1 XBU       0.601100
     11 OAY         -0.6920     1.2400     1.9870 o          1 XBU      -0.476000
     12 OAZ         -0.0930    -0.8910     2.5640 os         1 XBU      -0.416100
     13 CBB         -0.1530    -0.5690     3.9660 c3         1 XBU       0.149900
     14 OAC         -1.0430    -1.6750     0.0730 os         1 XBU      -0.384100
     15 CAD         -0.2070    -2.7410    -0.0700 c          1 XBU       0.629300
     16 OAP         -0.5580    -3.9090    -0.1760 o          1 XBU      -0.480000
     17 CAE          1.1710    -2.2050    -0.2180 ce         1 XBU       0.016900
     18 OAO          2.2210    -3.0510    -0.4680 oh         1 XBU      -0.489100
     19 CAA          1.2450    -0.8580    -0.1000 cf         1 XBU      -0.124400
     20 CAQ          2.3830     0.0840    -0.2860 ca         1 XBU      -0.078800
     21 CAR          3.4590    -0.2640    -1.1330 ca         1 XBU      -0.041000
     22 CAS          4.5380     0.6150    -1.3290 ca         1 XBU      -0.178500
     23 CAT          4.5590     1.8580    -0.6860 ca         1 XBU       0.152100
     24 OAW          5.6090     2.7030    -0.8820 oh         1 XBU      -0.531100
     25 CAU          3.4980     2.2250     0.1530 ca         1 XBU      -0.178500
     26 CAV          2.4170     1.3460     0.3500 ca         1 XBU      -0.041000
     27 H1          -2.1370     2.7020     0.1650 ha         1 XBU       0.120500
     28 H2          -4.5860     3.1040     0.1120 ha         1 XBU       0.121500
     29 H3          -6.8070     0.7850    -1.4710 ho         1 XBU       0.465000
     30 H4          -5.1550    -0.5800    -2.0630 ha         1 XBU       0.121500
     31 H5          -2.7140    -0.9930    -2.0160 ha         1 XBU       0.120500
     32 H6          -0.4340     0.2030    -1.8780 hc         1 XBU       0.072200
     33 H7          -0.2100     1.5180    -0.7670 hc         1 XBU       0.072200
     34 H8           0.1130    -1.4450     4.5700 h1         1 XBU       0.052700
     35 H9           0.5480     0.2390     4.2120 h1         1 XBU       0.052700
     36 H10         -1.1640    -0.2520     4.2530 h1         1 XBU       0.052700
     37 H11          1.8550    -3.9650    -0.5020 ho         1 XBU       0.488000
     38 H12          3.4600    -1.2120    -1.6620 ha         1 XBU       0.117000
     39 H13          5.3550     0.3310    -1.9860 ha         1 XBU       0.123500
     40 H14          5.4540     3.5170    -0.3580 ho         1 XBU       0.467000
     41 H15          3.5020     3.1880     0.6570 ha         1 XBU       0.123500
     42 H16          1.6190     1.6630     1.0100 ha         1 XBU       0.117000
@<TRIPOS>BOND
     1     1     2 ar  
     2     1     7 ar  
     3     1    27 1   
     4     2     3 ar  
     5     2    28 1   
     6     3     4 1   
     7     3     5 ar  
     8     4    29 1   
     9     5     6 ar  
    10     5    30 1   
    11     6     7 ar  
    12     6    31 1   
    13     7     8 1   
    14     8     9 1   
    15     8    32 1   
    16     8    33 1   
    17     9    10 1   
    18     9    14 1   
    19     9    19 1   
    20    10    11 2   
    21    10    12 1   
    22    12    13 1   
    23    13    34 1   
    24    13    35 1   
    25    13    36 1   
    26    14    15 1   
    27    15    16 2   
    28    15    17 1   
    29    17    18 1   
    30    17    19 2   
    31    18    37 1   
    32    19    20 1   
    33    20    21 ar  
    34    20    26 ar  
    35    21    22 ar  
    36    21    38 1   
    37    22    23 ar  
    38    22    39 1   
    39    23    24 1   
    40    23    25 ar  
    41    24    40 1   
    42    25    26 ar  
    43    25    41 1   
    44    26    42 1   
@<TRIPOS>SUBSTRUCTURE
     1 XBU         1 TEMP              0 ****  ****    0 ROOT
