@<TRIPOS>MOLECULE
XBV
   57    60     1     0     0
SMALL
No Charge or Current Charge


@<TRIPOS>ATOM
      1 C1           2.0060     1.8710     0.5930 c5         1 XBV      -0.151700
      2 C2           0.7090     2.2660    -0.2160 c5         1 XBV      -0.145700
      3 C3           0.7920     3.8070    -0.2460 c5         1 XBV       0.168800
      4 N4           2.2320     3.9640    -0.5210 n3         1 XBV      -0.703600
      5 C5           2.8850     3.1550     0.5390 c5         1 XBV       0.169800
      6 C6           2.7590     0.7080    -0.1090 c          1 XBV       0.617100
      7 C7          -0.5860     1.8430     0.5230 c          1 XBV       0.617100
      8 N8          -1.3490     1.0480    -0.3220 ns         1 XBV      -0.138000
      9 O9          -0.8850     2.1400     1.6740 o          1 XBV      -0.582100
     10 O10          3.1530     0.6870    -1.2680 o          1 XBV      -0.515100
     11 N11          2.9180    -0.3220     0.7960 ns         1 XBV      -0.328900
     12 C12          3.4720    -1.5970     0.6290 ca         1 XBV       0.493900
     13 N13          3.2850    -2.1670    -0.5780 nb         1 XBV      -0.672000
     14 C14          4.4030    -4.1600     0.2620 ca         1 XBV       0.021000
     15 C15          4.5660    -3.5660     1.5240 ca         1 XBV      -0.036000
     16 C16          3.7560    -3.4270    -0.7550 ca         1 XBV       0.390900
     17 C17          4.0790    -2.2600     1.7080 ca         1 XBV      -0.211000
     18 Cl1          4.9890    -5.7960    -0.0330 cl         1 XBV      -0.182000
     19 C19         -2.6070     0.3980    -0.1520 ca         1 XBV      -0.045000
     20 C20         -3.4000     0.5320     1.0070 ca         1 XBV      -0.109000
     21 C21         -5.0950    -0.9830     0.0740 ca         1 XBV       0.019600
     22 C22         -4.3210    -1.0680    -1.1030 ca         1 XBV      -0.095000
     23 C23         -4.6340    -0.1360     1.1070 ca         1 XBV      -0.095000
     24 C24         -3.0910    -0.4010    -1.2050 ca         1 XBV       0.121000
     25 N25         -6.4160    -1.5850     0.1300 n          1 XBV      -0.198200
     26 C26         -7.4530    -0.8810     0.7620 cc         1 XBV      -0.024400
     27 C27         -9.0030    -2.7400     0.5100 cd         1 XBV      -0.085000
     28 C28         -7.9920    -3.4390    -0.1090 cc         1 XBV      -0.318200
     29 C29         -8.7110    -1.4140     0.9650 cd         1 XBV      -0.300000
     30 C30         -6.6350    -2.9150    -0.3200 c          1 XBV       0.555200
     31 O31         -5.7630    -3.6090    -0.8270 o          1 XBV      -0.539000
     32 F32         -2.3720    -0.5230    -2.3450 f          1 XBV      -0.179000
     33 C33          2.7010     5.3720    -0.6630 c3         1 XBV       0.111800
     34 C34          4.1900     5.5780    -1.0620 c3         1 XBV       0.180300
     35 F35          5.0140     5.2670    -0.0340 f          1 XBV      -0.118500
     36 F36          4.5230     4.7840    -2.1080 f          1 XBV      -0.118500
     37 H1           1.7860     1.6150     1.6360 hc         1 XBV       0.086700
     38 H2           0.7260     1.8740    -1.2400 hc         1 XBV       0.109700
     39 H51C         2.8580     3.6800     1.5050 h1         1 XBV       0.055700
     40 H52C         3.9370     2.9340     0.3110 h1         1 XBV       0.055700
     41 H31C         0.1610     4.2410    -1.0340 h1         1 XBV       0.049200
     42 H32C         0.5120     4.2630     0.7160 h1         1 XBV       0.049200
     43 H331         2.0940     5.8710    -1.4300 h1         1 XBV       0.053700
     44 H332         2.5230     5.9190     0.2730 h1         1 XBV       0.053700
     45 H11          2.5920    -0.1330     1.7340 hn         1 XBV       0.154000
     46 H8          -0.9380     0.8960    -1.2340 hn         1 XBV       0.172000
     47 H17          4.1740    -1.7660     2.6700 ha         1 XBV       0.125000
     48 H16          3.6060    -3.8650    -1.7410 h4         1 XBV       0.039100
     49 H15          5.0510    -4.1050     2.3350 ha         1 XBV       0.134000
     50 H20         -3.0840     1.1510     1.8420 ha         1 XBV       0.153000
     51 H23         -5.2120    -0.0180     2.0210 ha         1 XBV       0.130000
     52 H22         -4.6730    -1.6400    -1.9570 ha         1 XBV       0.149000
     53 H26         -7.1780     0.1310     1.0390 h4         1 XBV       0.202000
     54 H29         -9.4810    -0.8210     1.4550 ha         1 XBV       0.201000
     55 H27         -9.9890    -3.1810     0.6500 ha         1 XBV       0.186000
     56 H28         -8.1460    -4.4510    -0.4650 ha         1 XBV       0.210000
     57 H34          4.3590     6.6240    -1.3400 h2         1 XBV       0.056700
@<TRIPOS>BOND
     1     1     2 1   
     2     1     5 1   
     3     1     6 1   
     4     1    37 1   
     5     2     3 1   
     6     2     7 1   
     7     2    38 1   
     8     3     4 1   
     9     3    41 1   
    10     3    42 1   
    11     4     5 1   
    12     4    33 1   
    13     5    39 1   
    14     5    40 1   
    15     6    10 2   
    16     6    11 1   
    17     7     8 1   
    18     7     9 2   
    19     8    19 1   
    20     8    46 1   
    21    11    12 1   
    22    11    45 1   
    23    12    13 ar  
    24    12    17 ar  
    25    13    16 ar  
    26    14    15 ar  
    27    14    16 ar  
    28    14    18 1   
    29    15    17 ar  
    30    15    49 1   
    31    16    48 1   
    32    17    47 1   
    33    19    20 ar  
    34    19    24 ar  
    35    20    23 ar  
    36    20    50 1   
    37    21    22 ar  
    38    21    23 ar  
    39    21    25 1   
    40    22    24 ar  
    41    22    52 1   
    42    23    51 1   
    43    24    32 1   
    44    25    26 1   
    45    25    30 1   
    46    26    29 2   
    47    26    53 1   
    48    27    28 2   
    49    27    29 1   
    50    27    55 1   
    51    28    30 1   
    52    28    56 1   
    53    29    54 1   
    54    30    31 2   
    55    33    34 1   
    56    33    43 1   
    57    33    44 1   
    58    34    35 1   
    59    34    36 1   
    60    34    57 1   
@<TRIPOS>SUBSTRUCTURE
     1 XBV         1 TEMP              0 ****  ****    0 ROOT
