@<TRIPOS>MOLECULE
XBV
   57    60     1     0     0
SMALL
bcc


@<TRIPOS>ATOM
      1 C1           1.8710     1.2320     0.5350 c5         1 XBV      -0.151700
      2 C2           0.5960     1.5380    -0.2500 c5         1 XBV      -0.145700
      3 C3           0.5690     3.0680    -0.2840 c5         1 XBV       0.168800
      4 N4           1.9700     3.3910    -0.4620 n3         1 XBV      -0.703600
      5 C5           2.6920     2.5450     0.4750 c5         1 XBV       0.169800
      6 C6           2.6590     0.0670    -0.0390 c          1 XBV       0.684100
      7 C7          -0.6600     0.9730     0.3780 c          1 XBV       0.684100
      8 N8          -1.6510     0.7420    -0.5230 ns         1 XBV      -0.464100
      9 O9          -0.7750     0.7870     1.5740 o          1 XBV      -0.582100
     10 O10          2.5510    -0.3110    -1.1850 o          1 XBV      -0.515100
     11 N11          3.5260    -0.4670     0.8740 ns         1 XBV      -0.562400
     12 C12          4.4730    -1.4700     0.7140 ca         1 XBV       0.559200
     13 N13          4.6840    -1.9930    -0.4790 nb         1 XBV      -0.672000
     14 C14          6.3450    -3.4130     0.4600 ca         1 XBV      -0.135900
     15 C15          6.1330    -2.8650     1.7180 ca         1 XBV      -0.054000
     16 C16          5.5980    -2.9460    -0.6060 ca         1 XBV       0.456200
     17 C17          5.1810    -1.8780     1.8510 ca         1 XBV      -0.294300
     18 CL1          7.5190    -4.6550     0.2220 cl         1 XBV      -0.090400
     19 C19         -2.9460     0.2870    -0.2860 ca         1 XBV       0.047600
     20 C20         -3.5510     0.1890     0.9650 ca         1 XBV      -0.127000
     21 C21         -5.5830    -0.6240    -0.0390 ca         1 XBV       0.019600
     22 C22         -5.0080    -0.5310    -1.2980 ca         1 XBV      -0.113000
     23 C23         -4.8560    -0.2700     1.0820 ca         1 XBV      -0.113000
     24 C24         -3.7120    -0.0860    -1.3930 ca         1 XBV       0.085900
     25 N25         -6.9350    -1.0540     0.0950 n          1 XBV      -0.265200
     26 C26         -7.8710    -0.1450     0.4870 cc         1 XBV       0.025600
     27 C27         -9.5350    -1.8380     0.4240 cd         1 XBV      -0.035000
     28 C28         -8.6090    -2.7510     0.0350 cc         1 XBV      -0.268200
     29 C29         -9.1680    -0.4910     0.6610 cd         1 XBV      -0.250000
     30 C30         -7.2270    -2.4000    -0.1510 c          1 XBV       0.697700
     31 O31         -6.3380    -3.1730    -0.4880 o          1 XBV      -0.614500
     32 F32         -3.1490     0.0070    -2.6090 f          1 XBV      -0.143900
     33 C33          2.2410     4.8040    -0.3580 c3         1 XBV       0.111800
     34 C34          3.5320     5.2300    -1.0080 c3         1 XBV       0.422900
     35 F35          4.6170     4.6790    -0.3840 f          1 XBV      -0.239800
     36 F36          3.5860     4.8070    -2.3020 f          1 XBV      -0.239800
     37 H1           1.6250     1.0160     1.5760 hc         1 XBV       0.086700
     38 H2           0.7010     1.1780    -1.2760 hc         1 XBV       0.109700
     39 H51C         2.7340     2.9900     1.4800 h1         1 XBV       0.055700
     40 H52C         3.7200     2.3800     0.1530 h1         1 XBV       0.055700
     41 H31C        -0.0320     3.4590    -1.1060 h1         1 XBV       0.049200
     42 H32C         0.1570     3.4680     0.6580 h1         1 XBV       0.049200
     43 H331         1.4440     5.3550    -0.8640 h1         1 XBV       0.053700
     44 H332         2.2510     5.1640     0.6830 h1         1 XBV       0.053700
     45 H11          3.4710    -0.0860     1.8060 hn         1 XBV       0.320500
     46 H8          -1.4100     0.8950    -1.4910 hn         1 XBV       0.338500
     47 H17          4.9910    -1.4310     2.8180 ha         1 XBV       0.143000
     48 H16          5.7440    -3.3530    -1.6000 h4         1 XBV       0.039100
     49 H15          6.6980    -3.2000     2.5770 ha         1 XBV       0.152000
     50 H20         -3.0140     0.4640     1.8560 ha         1 XBV       0.171000
     51 H23         -5.3020    -0.3480     2.0650 ha         1 XBV       0.148000
     52 H22         -5.5550    -0.7910    -2.1940 ha         1 XBV       0.167000
     53 H26         -7.5110     0.8630     0.6400 h4         1 XBV       0.152000
     54 H29         -9.8900     0.2510     0.9680 ha         1 XBV       0.151000
     55 H27        -10.5660    -2.1400     0.5550 ha         1 XBV       0.136000
     56 H28         -8.8790    -3.7820    -0.1450 ha         1 XBV       0.160000
     57 H34          3.6530     6.3150    -0.9920 h2         1 XBV       0.056700
@<TRIPOS>BOND
     1     1     2 1   
     2     1     5 1   
     3     1     6 1   
     4     1    37 1   
     5     2     3 1   
     6     2     7 1   
     7     2    38 1   
     8     3     4 1   
     9     3    41 1   
    10     3    42 1   
    11     4     5 1   
    12     4    33 1   
    13     5    39 1   
    14     5    40 1   
    15     6    10 2   
    16     6    11 1   
    17     7     8 1   
    18     7     9 2   
    19     8    19 1   
    20     8    46 1   
    21    11    12 1   
    22    11    45 1   
    23    12    13 ar  
    24    12    17 ar  
    25    13    16 ar  
    26    14    15 ar  
    27    14    16 ar  
    28    14    18 1   
    29    15    17 ar  
    30    15    49 1   
    31    16    48 1   
    32    17    47 1   
    33    19    20 ar  
    34    19    24 ar  
    35    20    23 ar  
    36    20    50 1   
    37    21    22 ar  
    38    21    23 ar  
    39    21    25 1   
    40    22    24 ar  
    41    22    52 1   
    42    23    51 1   
    43    24    32 1   
    44    25    26 1   
    45    25    30 1   
    46    26    29 2   
    47    26    53 1   
    48    27    28 2   
    49    27    29 1   
    50    27    55 1   
    51    28    30 1   
    52    28    56 1   
    53    29    54 1   
    54    30    31 2   
    55    33    34 1   
    56    33    43 1   
    57    33    44 1   
    58    34    35 1   
    59    34    36 1   
    60    34    57 1   
@<TRIPOS>SUBSTRUCTURE
     1 XBV         1 TEMP              0 ****  ****    0 ROOT
