@<TRIPOS>MOLECULE
XBW
   28    29     1     0     0
SMALL
No Charge or Current Charge


@<TRIPOS>ATOM
      1 C1          29.7090   -10.7290     4.2580 ca         1 XBW      -0.077000
      2 C13         23.0670   -14.6230     4.7400 ca         1 XBW      -0.109000
      3 C14         23.3840   -15.8110     4.0600 ca         1 XBW      -0.108000
      4 C15         24.0350   -15.7530     2.8160 ca         1 XBW      -0.109000
      5 C16         24.3680   -14.5090     2.2520 ca         1 XBW      -0.101500
      6 C2          30.3230    -9.5320     3.8660 ca         1 XBW      -0.150000
      7 C6          28.4200   -11.0080     3.7740 ca         1 XBW      -0.146000
      8 C3          29.6320    -8.6620     3.0100 ca         1 XBW       0.336900
      9 N4          28.3910    -8.9250     2.5400 nb         1 XBW      -0.621000
     10 C5          27.7720   -10.0870     2.9090 ca         1 XBW       0.291500
     11 N8          25.7480   -11.5500     2.7480 ns         1 XBW      -0.507900
     12 O9          25.7670    -9.5930     1.6110 o          1 XBW      -0.560100
     13 C10         24.4140   -11.9690     2.3230 c3         1 XBW       0.145300
     14 C11         24.0490   -13.3150     2.9290 ca         1 XBW      -0.108300
     15 C12         23.3990   -13.3780     4.1770 ca         1 XBW      -0.101500
     16 H17         30.2180   -11.4260     4.9220 ha         1 XBW       0.122000
     17 H26         23.1270   -16.7740     4.4960 ha         1 XBW       0.113000
     18 H27         24.2830   -16.6720     2.2890 ha         1 XBW       0.113000
     19 H28         24.8740   -14.4730     1.2900 ha         1 XBW       0.113000
     20 H18         31.3180    -9.2750     4.2170 ha         1 XBW       0.127000
     21 H20         27.9390   -11.9340     4.0740 ha         1 XBW       0.125000
     22 H19         30.0850    -7.7250     2.6890 h4         1 XBW       0.026100
     23 H21         26.2620   -12.1650     3.3670 hn         1 XBW       0.315500
     24 H22         23.6830   -11.2100     2.6320 h1         1 XBW       0.067200
     25 H23         24.3910   -12.0350     1.2260 h1         1 XBW       0.067200
     26 H24         23.1520   -12.4630     4.7120 ha         1 XBW       0.113000
     27 C7          26.3570   -10.3660     2.3610 c          1 XBW       0.510600
     28 H25         22.5640   -14.6660     5.7040 ha         1 XBW       0.113000
@<TRIPOS>BOND
     1     1     6 ar  
     2     1     7 ar  
     3     1    16 1   
     4     2     3 ar  
     5     2    15 ar  
     6     2    28 1   
     7     3     4 ar  
     8     3    17 1   
     9     4     5 ar  
    10     4    18 1   
    11     5    14 ar  
    12     5    19 1   
    13     6     8 ar  
    14     6    20 1   
    15     7    10 ar  
    16     7    21 1   
    17     8     9 ar  
    18     8    22 1   
    19     9    10 ar  
    20    10    27 1   
    21    11    13 1   
    22    11    23 1   
    23    11    27 1   
    24    12    27 2   
    25    13    14 1   
    26    13    24 1   
    27    13    25 1   
    28    14    15 ar  
    29    15    26 1   
@<TRIPOS>SUBSTRUCTURE
     1 XBW         1 TEMP              0 ****  ****    0 ROOT
