@<TRIPOS>MOLECULE
XBW
   28    29     1     0     0
SMALL
abcg2


@<TRIPOS>ATOM
      1 C1          29.7990   -10.9300     3.9370 ca         1 XBW      -0.077000
      2 C13         22.5730   -14.9160     3.9390 ca         1 XBW      -0.109000
      3 C14         23.5610   -15.8100     3.5470 ca         1 XBW      -0.108000
      4 C15         24.7720   -15.3250     3.0720 ca         1 XBW      -0.109000
      5 C16         24.9920   -13.9560     2.9840 ca         1 XBW      -0.101500
      6 C2          30.3650    -9.8100     3.3530 ca         1 XBW      -0.150000
      7 C6          28.4710   -11.2250     3.6660 ca         1 XBW      -0.146000
      8 C3          29.5760    -9.0380     2.5100 ca         1 XBW       0.336900
      9 N4          28.3120    -9.3210     2.2350 nb         1 XBW      -0.621000
     10 C5          27.7670   -10.3870     2.8110 ca         1 XBW       0.291500
     11 N8          25.5660   -11.1400     3.4160 ns         1 XBW      -0.507900
     12 O9          25.9480   -10.4600     1.2870 o          1 XBW      -0.560100
     13 C10         24.1980   -11.5610     3.2460 c3         1 XBW       0.145300
     14 C11         24.0060   -13.0550     3.3720 ca         1 XBW      -0.108300
     15 C12         22.7970   -13.5500     3.8540 ca         1 XBW      -0.101500
     16 H17         30.3800   -11.5680     4.5900 ha         1 XBW       0.122000
     17 H26         23.3910   -16.8770     3.6170 ha         1 XBW       0.113000
     18 H27         25.5500   -16.0130     2.7680 ha         1 XBW       0.113000
     19 H28         25.9450   -13.5970     2.6140 ha         1 XBW       0.113000
     20 H18         31.3950    -9.5370     3.5370 ha         1 XBW       0.127000
     21 H20         28.0110   -12.1050     4.0970 ha         1 XBW       0.125000
     22 H19         29.9870    -8.1550     2.0340 h4         1 XBW       0.026100
     23 H21         25.9490   -11.2080     4.3460 hn         1 XBW       0.315500
     24 H22         23.5720   -11.0500     3.9800 h1         1 XBW       0.067200
     25 H23         23.8600   -11.2270     2.2650 h1         1 XBW       0.067200
     26 H24         22.0240   -12.8580     4.1700 ha         1 XBW       0.113000
     27 C7          26.3380   -10.6640     2.4240 c          1 XBW       0.510600
     28 H25         21.6280   -15.2830     4.3200 ha         1 XBW       0.113000
@<TRIPOS>BOND
     1     1     6 ar  
     2     1     7 ar  
     3     1    16 1   
     4     2     3 ar  
     5     2    15 ar  
     6     2    28 1   
     7     3     4 ar  
     8     3    17 1   
     9     4     5 ar  
    10     4    18 1   
    11     5    14 ar  
    12     5    19 1   
    13     6     8 ar  
    14     6    20 1   
    15     7    10 ar  
    16     7    21 1   
    17     8     9 ar  
    18     8    22 1   
    19     9    10 ar  
    20    10    27 1   
    21    11    13 1   
    22    11    23 1   
    23    11    27 1   
    24    12    27 2   
    25    13    14 1   
    26    13    24 1   
    27    13    25 1   
    28    14    15 ar  
    29    15    26 1   
@<TRIPOS>SUBSTRUCTURE
     1 XBW         1 TEMP              0 ****  ****    0 ROOT
