@<TRIPOS>MOLECULE
XBZ
   21    21     1     0     0
SMALL
No Charge or Current Charge


@<TRIPOS>ATOM
      1 C8           3.1010     0.3990     0.0440 c3         1 XBZ      -0.044800
      2 C5           1.6210     0.0510     0.0110 ca         1 XBZ      -0.076300
      3 C4           0.6520     1.0690     0.0590 ca         1 XBZ      -0.108000
      4 C3          -0.7240     0.7600     0.0320 ca         1 XBZ      -0.072300
      5 C9          -1.7450     1.8940     0.0850 c3         1 XBZ      -0.045800
      6 C6           1.2080    -1.2900    -0.0590 ca         1 XBZ      -0.111000
      7 C7          -0.1590    -1.6090    -0.0860 ca         1 XBZ      -0.105000
      8 C2          -1.1330    -0.5930    -0.0420 ca         1 XBZ      -0.079300
      9 C1          -2.6110    -0.9720    -0.0720 c3         1 XBZ      -0.044800
     10 H1           3.4620     0.4730     1.0770 hc         1 XBZ       0.041033
     11 H2           3.7030    -0.3610    -0.4680 hc         1 XBZ       0.041033
     12 H3           3.2970     1.3590    -0.4490 hc         1 XBZ       0.041033
     13 H4           0.9710     2.1070     0.1170 ha         1 XBZ       0.107000
     14 H5          -2.3820     1.8930    -0.8080 hc         1 XBZ       0.040367
     15 H6          -2.3930     1.8000     0.9640 hc         1 XBZ       0.040367
     16 H7          -1.2610     2.8760     0.1390 hc         1 XBZ       0.040367
     17 H8           1.9470    -2.0890    -0.0930 ha         1 XBZ       0.110000
     18 H9          -0.4600    -2.6530    -0.1420 ha         1 XBZ       0.109000
     19 H10         -3.1270    -0.6240     0.8300 hc         1 XBZ       0.040033
     20 H11         -3.1140    -0.5310    -0.9410 hc         1 XBZ       0.040033
     21 H12         -2.7530    -2.0580    -0.1300 hc         1 XBZ       0.040033
@<TRIPOS>BOND
     1     1     2 1   
     2     1    10 1   
     3     1    11 1   
     4     1    12 1   
     5     2     3 ar  
     6     2     6 ar  
     7     3     4 ar  
     8     3    13 1   
     9     4     5 1   
    10     4     8 ar  
    11     5    14 1   
    12     5    15 1   
    13     5    16 1   
    14     6     7 ar  
    15     6    17 1   
    16     7     8 ar  
    17     7    18 1   
    18     8     9 1   
    19     9    19 1   
    20     9    20 1   
    21     9    21 1   
@<TRIPOS>SUBSTRUCTURE
     1 XBZ         1 TEMP              0 ****  ****    0 ROOT
