@<TRIPOS>MOLECULE
XC0
   27    26     1     0     0
SMALL
No Charge or Current Charge


@<TRIPOS>ATOM
      1 C2          19.1180    -4.8500    12.7770 c3         1 XC0      -0.086100
      2 N           16.6730    -6.9980     5.3720 n8         1 XC0      -0.994200
      3 CA          15.6500    -6.0340     5.9240 c3         1 XC0       0.020500
      4 CB          15.5820    -6.1220     7.4750 c3         1 XC0      -0.030400
      5 CG          16.8470    -5.6230     8.2180 c3         1 XC0      -0.070400
      6 CD          16.7260    -5.7340     9.7550 c3         1 XC0      -0.073400
      7 CE          17.9850    -5.2350    10.4990 c3         1 XC0      -0.076400
      8 C           15.7140    -4.5190     5.4360 c          1 XC0       0.718000
      9 O           16.7970    -4.0330     5.1310 o          1 XC0      -0.732500
     10 C1          17.8630    -5.3470    12.0340 c3         1 XC0      -0.076400
     11 OXT         14.6550    -3.9280     5.2650 o          1 XC0      -0.732500
     12 H1          18.9840    -4.9480    13.8610 hc         1 XC0       0.024033
     13 H4          19.9980    -5.4340    12.4860 hc         1 XC0       0.024033
     14 H3          19.3110    -3.7940    12.5500 hc         1 XC0       0.024033
     15 HA          14.6880    -6.4180     5.5560 h1         1 XC0      -0.004300
     16 H8          14.7180    -5.5400     7.8190 hc         1 XC0       0.012700
     17 H9          15.3860    -7.1620     7.7650 hc         1 XC0       0.012700
     18 H10         17.7180    -6.2010     7.8850 hc         1 XC0       0.056200
     19 H11         17.0380    -4.5770     7.9510 hc         1 XC0       0.056200
     20 H12         15.8570    -5.1550    10.0900 hc         1 XC0       0.022200
     21 H13         16.5390    -6.7800    10.0260 hc         1 XC0       0.022200
     22 H14         18.8540    -5.8140    10.1640 hc         1 XC0       0.037700
     23 H15         18.1730    -4.1890    10.2280 hc         1 XC0       0.037700
     24 H16         16.9950    -4.7670    12.3730 hc         1 XC0       0.029700
     25 H17         17.6770    -6.3920    12.3100 hc         1 XC0       0.029700
     26 H           16.4170    -7.9550     5.6400 hn         1 XC0       0.374000
     27 H2          16.6150    -7.0010     4.3470 hn         1 XC0       0.374000
@<TRIPOS>BOND
     1     1    10 1   
     2     1    12 1   
     3     1    13 1   
     4     1    14 1   
     5     2     3 1   
     6     2    26 1   
     7     2    27 1   
     8     3     4 1   
     9     3     8 1   
    10     3    15 1   
    11     4     5 1   
    12     4    16 1   
    13     4    17 1   
    14     5     6 1   
    15     5    18 1   
    16     5    19 1   
    17     6     7 1   
    18     6    20 1   
    19     6    21 1   
    20     7    10 1   
    21     7    22 1   
    22     7    23 1   
    23     8     9 1   
    24     8    11 1   
    25    10    24 1   
    26    10    25 1   
@<TRIPOS>SUBSTRUCTURE
     1 XC0         1 TEMP              0 ****  ****    0 ROOT
