@<TRIPOS>MOLECULE
XC1
   53    53     1     0     0
SMALL
abcg2


@<TRIPOS>ATOM
      1 C01          5.6630    37.4320    14.8660 c3         1 XC1       0.139500
      2 C02          6.7690    36.3810    14.8260 c          1 XC1       0.613100
      3 N01          7.2180    36.0440    13.6080 ns         1 XC1      -0.477900
      4 O01          7.1620    35.8560    15.8560 o          1 XC1      -0.606100
      5 C03          8.2130    35.0190    13.4010 c3         1 XC1       0.040700
      6 C04          9.6090    35.5910    13.6520 c          1 XC1       0.591100
      7 O02         10.0510    36.5290    13.0150 o          1 XC1      -0.561100
      8 N02         10.2790    34.9590    14.6260 ns         1 XC1      -0.383400
      9 O03         11.5820    35.2510    14.8800 oh         1 XC1      -0.421100
     10 C05          8.1160    34.4960    11.9690 c3         1 XC1      -0.082400
     11 C06          9.1040    33.3850    11.6300 c3         1 XC1      -0.078400
     12 C07          8.9240    32.1170    12.4540 c3         1 XC1      -0.091100
     13 C08          4.2530    36.8000    14.8800 c3         1 XC1      -0.058700
     14 C09          3.9680    35.9440    13.6490 c3         1 XC1      -0.092100
     15 C10          3.9960    36.0330    16.1800 c3         1 XC1      -0.075400
     16 C11          2.5240    35.7060    16.3940 c3         1 XC1      -0.090100
     17 N03          5.7620    38.3510    13.7360 n7         1 XC1      -0.891300
     18 S01          6.7940    39.6280    13.8350 sy         1 XC1       1.147600
     19 O04          8.0480    39.1190    14.3580 o          1 XC1      -0.513000
     20 O05          6.7360    40.3080    12.5560 o          1 XC1      -0.513000
     21 C12          6.1060    40.7130    15.0700 ca         1 XC1      -0.289500
     22 C13          6.6270    40.6920    16.3540 ca         1 XC1      -0.014000
     23 C14          6.0450    41.5160    17.3050 ca         1 XC1       0.103500
     24 C15          4.9790    42.3430    16.9940 ca         1 XC1      -0.050000
     25 CL01         6.6640    41.5130    18.9140 cl         1 XC1      -0.175500
     26 C16          4.4900    42.3360    15.6960 ca         1 XC1       0.103500
     27 C17          5.0420    41.5310    14.7160 ca         1 XC1      -0.014000
     28 CL02         3.1630    43.3620    15.2980 cl         1 XC1      -0.175500
     29 H1           5.7740    37.9660    15.8180 h1         1 XC1       0.075700
     30 H2           6.9150    36.5890    12.8150 hn         1 XC1       0.337500
     31 H3           8.0040    34.2060    14.1000 h1         1 XC1       0.073700
     32 H4           9.9100    34.1610    15.1240 hn         1 XC1       0.341500
     33 H5          11.5810    35.9250    15.5740 ho         1 XC1       0.445000
     34 H6           8.2580    35.3320    11.2780 hc         1 XC1       0.054700
     35 H7           7.0960    34.1320    11.8160 hc         1 XC1       0.054700
     36 H8          10.1320    33.7480    11.7260 hc         1 XC1       0.051700
     37 H9           8.9780    33.1450    10.5730 hc         1 XC1       0.051700
     38 H10          9.5740    31.3220    12.0890 hc         1 XC1       0.032033
     39 H11          9.1620    32.2660    13.5080 hc         1 XC1       0.032033
     40 H12          7.8950    31.7550    12.3960 hc         1 XC1       0.032033
     41 H13          3.5670    37.6570    14.8720 hc         1 XC1       0.043700
     42 H14          2.9130    35.6730    13.6120 hc         1 XC1       0.041367
     43 H15          4.1930    36.4570    12.7140 hc         1 XC1       0.041367
     44 H16          4.5450    35.0180    13.6670 hc         1 XC1       0.041367
     45 H17          4.5810    35.1110    16.1880 hc         1 XC1       0.054200
     46 H18          4.3500    36.6300    17.0250 hc         1 XC1       0.054200
     47 H19          2.3750    35.2220    17.3600 hc         1 XC1       0.034700
     48 H20          1.9140    36.6100    16.3800 hc         1 XC1       0.034700
     49 H21          2.1360    35.0310    15.6310 hc         1 XC1       0.034700
     50 H22          4.8840    38.5990    13.2910 hn         1 XC1       0.492000
     51 H23          7.4640    40.0590    16.6130 ha         1 XC1       0.155000
     52 H24          4.5360    42.9800    17.7470 ha         1 XC1       0.149000
     53 H25          4.6500    41.5430    13.7080 ha         1 XC1       0.155000
@<TRIPOS>BOND
     1     1     2 1   
     2     1    13 1   
     3     1    17 1   
     4     1    29 1   
     5     2     3 1   
     6     2     4 2   
     7     3     5 1   
     8     3    30 1   
     9     5     6 1   
    10     5    10 1   
    11     5    31 1   
    12     6     7 2   
    13     6     8 1   
    14     8     9 1   
    15     8    32 1   
    16     9    33 1   
    17    10    11 1   
    18    10    34 1   
    19    10    35 1   
    20    11    12 1   
    21    11    36 1   
    22    11    37 1   
    23    12    38 1   
    24    12    39 1   
    25    12    40 1   
    26    13    14 1   
    27    13    15 1   
    28    13    41 1   
    29    14    42 1   
    30    14    43 1   
    31    14    44 1   
    32    15    16 1   
    33    15    45 1   
    34    15    46 1   
    35    16    47 1   
    36    16    48 1   
    37    16    49 1   
    38    17    18 1   
    39    17    50 1   
    40    18    19 2   
    41    18    20 2   
    42    18    21 1   
    43    21    22 ar  
    44    21    27 ar  
    45    22    23 ar  
    46    22    51 1   
    47    23    24 ar  
    48    23    25 1   
    49    24    26 ar  
    50    24    52 1   
    51    26    27 ar  
    52    26    28 1   
    53    27    53 1   
@<TRIPOS>SUBSTRUCTURE
     1 XC1         1 TEMP              0 ****  ****    0 ROOT
