@<TRIPOS>MOLECULE
XC1
   53    53     1     0     0
SMALL
No Charge or Current Charge


@<TRIPOS>ATOM
      1 C01          5.3940    36.8110    15.6830 c3         1 XC1       0.139500
      2 C02          6.5330    35.7990    15.3090 c          1 XC1       0.613100
      3 N01          7.2220    36.1120    14.1580 ns         1 XC1      -0.477900
      4 O01          6.8270    34.8300    15.9990 o          1 XC1      -0.606100
      5 C03          8.3180    35.3230    13.5620 c3         1 XC1       0.040700
      6 C04          9.1240    36.2210    12.5760 c          1 XC1       0.591100
      7 O02          8.6140    37.1510    11.9590 o          1 XC1      -0.561100
      8 N02         10.4790    35.9160    12.4610 ns         1 XC1      -0.383400
      9 O03         11.2850    36.4910    11.4030 oh         1 XC1      -0.421100
     10 C05          7.7310    34.0600    12.8660 c3         1 XC1      -0.082400
     11 C06          8.7650    33.0550    12.3000 c3         1 XC1      -0.078400
     12 C07          9.6650    32.4030    13.3710 c3         1 XC1      -0.091100
     13 C08          4.0140    36.3960    15.0800 c3         1 XC1      -0.058700
     14 C09          4.0120    36.3800    13.5260 c3         1 XC1      -0.092100
     15 C10          3.5040    35.0530    15.6790 c3         1 XC1      -0.075400
     16 C11          2.0430    34.7000    15.3220 c3         1 XC1      -0.090100
     17 N03          5.6950    38.2310    15.3020 n7         1 XC1      -0.891300
     18 S01          6.9430    39.0230    16.0820 sy         1 XC1       1.147600
     19 O04          6.8900    38.6100    17.4850 o          1 XC1      -0.513000
     20 O05          8.1220    38.8450    15.2350 o          1 XC1      -0.513000
     21 C12          6.3450    40.7060    15.9240 ca         1 XC1      -0.289500
     22 C13          5.6810    41.3380    17.0000 ca         1 XC1      -0.014000
     23 C14          5.2140    42.6570    16.8580 ca         1 XC1       0.103500
     24 C15          5.4030    43.3500    15.6510 ca         1 XC1      -0.050000
     25 Cl01         4.3890    43.4430    18.1990 cl         1 XC1      -0.175500
     26 C16          6.0600    42.7240    14.5800 ca         1 XC1       0.103500
     27 C17          6.5310    41.4060    14.7110 ca         1 XC1      -0.014000
     28 Cl02         6.2930    43.5920    13.0670 cl         1 XC1      -0.175500
     29 H1           5.2920    36.7440    16.7750 h1         1 XC1       0.075700
     30 H2           6.9530    36.9900    13.7210 hn         1 XC1       0.337500
     31 H3           8.9950    35.0190    14.3700 h1         1 XC1       0.073700
     32 H4          10.8380    35.0610    12.8830 hn         1 XC1       0.341500
     33 H5          12.0740    36.8460    11.8780 ho         1 XC1       0.445000
     34 H6           7.0750    34.3840    12.0480 hc         1 XC1       0.054700
     35 H7           7.0890    33.5230    13.5750 hc         1 XC1       0.054700
     36 H8           9.3870    33.5400    11.5390 hc         1 XC1       0.051700
     37 H9           8.2180    32.2570    11.7800 hc         1 XC1       0.051700
     38 H10         10.3220    31.6560    12.9100 hc         1 XC1       0.032033
     39 H11         10.2970    33.1460    13.8700 hc         1 XC1       0.032033
     40 H12          9.0570    31.8990    14.1320 hc         1 XC1       0.032033
     41 H13          3.2960    37.1660    15.3890 hc         1 XC1       0.043700
     42 H14          2.9930    36.2770    13.1360 hc         1 XC1       0.041367
     43 H15          4.4200    37.3120    13.1170 hc         1 XC1       0.041367
     44 H16          4.6090    35.5460    13.1380 hc         1 XC1       0.041367
     45 H17          4.1510    34.2300    15.3530 hc         1 XC1       0.054200
     46 H18          3.5820    35.0980    16.7730 hc         1 XC1       0.054200
     47 H19          1.7280    33.8000    15.8630 hc         1 XC1       0.034700
     48 H20          1.3660    35.5170    15.5980 hc         1 XC1       0.034700
     49 H21          1.9320    34.5020    14.2500 hc         1 XC1       0.034700
     50 H22          4.9050    38.8330    15.5340 hn         1 XC1       0.492000
     51 H23          5.5250    40.8190    17.9440 ha         1 XC1       0.155000
     52 H24          5.0400    44.3690    15.5470 ha         1 XC1       0.149000
     53 H25          7.0350    40.9330    13.8690 ha         1 XC1       0.155000
@<TRIPOS>BOND
     1     1     2 1   
     2     1    13 1   
     3     1    17 1   
     4     1    29 1   
     5     2     3 1   
     6     2     4 2   
     7     3     5 1   
     8     3    30 1   
     9     5     6 1   
    10     5    10 1   
    11     5    31 1   
    12     6     7 2   
    13     6     8 1   
    14     8     9 1   
    15     8    32 1   
    16     9    33 1   
    17    10    11 1   
    18    10    34 1   
    19    10    35 1   
    20    11    12 1   
    21    11    36 1   
    22    11    37 1   
    23    12    38 1   
    24    12    39 1   
    25    12    40 1   
    26    13    14 1   
    27    13    15 1   
    28    13    41 1   
    29    14    42 1   
    30    14    43 1   
    31    14    44 1   
    32    15    16 1   
    33    15    45 1   
    34    15    46 1   
    35    16    47 1   
    36    16    48 1   
    37    16    49 1   
    38    17    18 1   
    39    17    50 1   
    40    18    19 2   
    41    18    20 2   
    42    18    21 1   
    43    21    22 ar  
    44    21    27 ar  
    45    22    23 ar  
    46    22    51 1   
    47    23    24 ar  
    48    23    25 1   
    49    24    26 ar  
    50    24    52 1   
    51    26    27 ar  
    52    26    28 1   
    53    27    53 1   
@<TRIPOS>SUBSTRUCTURE
     1 XC1         1 TEMP              0 ****  ****    0 ROOT
