@<TRIPOS>MOLECULE
XC2
   61    66     1     0     0
SMALL
abcg2


@<TRIPOS>ATOM
      1 S6          -2.4900    -7.3710    -0.9830 ss         1 XC2      -0.314600
      2 C5          -0.9210    -8.2330    -1.3070 c5         1 XC2       0.058600
      3 C11         -0.1020    -7.2420    -2.1160 c5         1 XC2      -0.073300
      4 N10         -0.4220    -5.9400    -1.5510 n          1 XC2      -0.223000
      5 C6          -1.6760    -5.8220    -1.0560 cc         1 XC2       0.239200
      6 C7          -2.1880    -4.6300    -0.6340 cd         1 XC2      -0.201200
      7 C8          -1.3110    -3.5030    -0.6820 cd         1 XC2       0.034800
      8 C9          -0.0420    -3.6130    -1.1940 cc         1 XC2      -0.241400
      9 C10          0.4390    -4.8720    -1.7130 c          1 XC2       0.583200
     10 O25          1.5460    -5.0520    -2.2140 o          1 XC2      -0.554000
     11 C26          0.9510    -2.4870    -1.2420 c3         1 XC2       0.239000
     12 N5           1.1220    -1.9450    -2.5790 n3         1 XC2      -0.692600
     13 C1          -0.0570    -1.2780    -3.0910 c6         1 XC2       0.132800
     14 C2           0.1960    -0.7940    -4.5060 c6         1 XC2       0.152100
     15 O3           1.3120     0.0650    -4.5730 os         1 XC2      -0.468000
     16 C34          2.4660    -0.5700    -4.0680 c6         1 XC2       0.152100
     17 C4           2.2630    -1.0550    -2.6460 c6         1 XC2       0.132800
     18 C24         -1.7990    -2.2130    -0.0840 c3         1 XC2      -0.006900
     19 C15         -1.6050    -2.1170     1.4120 ca         1 XC2      -0.045300
     20 C20         -0.9530    -3.0870     2.1280 ca         1 XC2      -0.101000
     21 C19         -0.7640    -2.9770     3.5220 ca         1 XC2      -0.098000
     22 C18         -1.2260    -1.8850     4.1970 ca         1 XC2      -0.119000
     23 C17         -1.9030    -0.8550     3.5030 ca         1 XC2      -0.035000
     24 C21         -2.3860     0.2870     4.1830 ca         1 XC2      -0.103000
     25 C27         -3.0380     1.2840     3.5090 ca         1 XC2      -0.116000
     26 C28         -3.2340     1.1780     2.1180 ca         1 XC2      -0.120000
     27 C29         -2.7760     0.0830     1.4330 ca         1 XC2      -0.093000
     28 C16         -2.0980    -0.9670     2.1000 ca         1 XC2      -0.034000
     29 C22         -3.5590    -4.5580    -0.0600 cx         1 XC2      -0.047500
     30 C31         -4.7290    -5.1980    -0.7550 cx         1 XC2      -0.133900
     31 C30         -4.6240    -3.7110    -0.7000 cx         1 XC2      -0.133900
     32 C23         -0.4410    -7.2960    -3.6340 c          1 XC2       0.729000
     33 O33         -0.2150    -8.3990    -4.1640 o          1 XC2      -0.697000
     34 O32         -0.8900    -6.2660    -4.1540 o          1 XC2      -0.697000
     35 H5C1        -1.1110    -9.1480    -1.8610 h1         1 XC2       0.073700
     36 H5C2        -0.4470    -8.4820    -0.3570 h1         1 XC2       0.073700
     37 H11          0.9610    -7.4420    -1.9800 h1         1 XC2       0.092700
     38 H22         -3.6000    -4.5860     1.0260 hc         1 XC2       0.069700
     39 H241        -2.8590    -2.0940    -0.3100 hc         1 XC2       0.061200
     40 H242        -1.3050    -1.3630    -0.5560 hc         1 XC2       0.061200
     41 H261         1.9240    -2.8730    -0.9270 h1         1 XC2       0.031700
     42 H262         0.6930    -1.7040    -0.5110 h1         1 XC2       0.031700
     43 H1C1        -0.3570    -0.4190    -2.4630 h1         1 XC2       0.034700
     44 H1C2        -0.8990    -1.9740    -3.1100 h1         1 XC2       0.034700
     45 H4C1         3.1600    -1.5920    -2.3270 h1         1 XC2       0.034700
     46 H4C2         2.1500    -0.1860    -1.9720 h1         1 XC2       0.034700
     47 H2C1         0.3390    -1.6630    -5.1650 h1         1 XC2       0.049450
     48 H2C2        -0.6680    -0.2360    -4.8700 h1         1 XC2       0.049450
     49 H341         3.2800     0.1540    -4.1060 h1         1 XC2       0.049450
     50 H342         2.7440    -1.4240    -4.7040 h1         1 XC2       0.049450
     51 H20         -0.5660    -3.9640     1.6250 ha         1 XC2       0.134000
     52 H19         -0.2450    -3.7670     4.0480 ha         1 XC2       0.110000
     53 H18         -1.0800    -1.7940     5.2670 ha         1 XC2       0.104000
     54 H21         -2.2300     0.3630     5.2520 ha         1 XC2       0.105000
     55 H27         -3.4050     2.1520     4.0390 ha         1 XC2       0.104000
     56 H28         -3.7480     1.9690     1.5880 ha         1 XC2       0.106000
     57 H29         -2.9390     0.0300     0.3650 ha         1 XC2       0.116000
     58 H311        -5.4690    -5.6950    -0.1420 hc         1 XC2       0.070200
     59 H312        -4.5660    -5.6630    -1.7190 hc         1 XC2       0.070200
     60 H301        -4.3720    -3.1990    -1.6210 hc         1 XC2       0.070200
     61 H302        -5.2890    -3.1580    -0.0490 hc         1 XC2       0.070200
@<TRIPOS>BOND
     1     1     2 1   
     2     1     5 1   
     3     2     3 1   
     4     2    35 1   
     5     2    36 1   
     6     3     4 1   
     7     3    32 1   
     8     3    37 1   
     9     4     5 1   
    10     4     9 1   
    11     5     6 2   
    12     6     7 1   
    13     6    29 1   
    14     7     8 2   
    15     7    18 1   
    16     8     9 1   
    17     8    11 1   
    18     9    10 2   
    19    11    12 1   
    20    11    41 1   
    21    11    42 1   
    22    12    13 1   
    23    12    17 1   
    24    13    14 1   
    25    13    43 1   
    26    13    44 1   
    27    14    15 1   
    28    14    47 1   
    29    14    48 1   
    30    15    16 1   
    31    16    17 1   
    32    16    49 1   
    33    16    50 1   
    34    17    45 1   
    35    17    46 1   
    36    18    19 1   
    37    18    39 1   
    38    18    40 1   
    39    19    20 ar  
    40    19    28 ar  
    41    20    21 ar  
    42    20    51 1   
    43    21    22 ar  
    44    21    52 1   
    45    22    23 ar  
    46    22    53 1   
    47    23    24 ar  
    48    23    28 ar  
    49    24    25 ar  
    50    24    54 1   
    51    25    26 ar  
    52    25    55 1   
    53    26    27 ar  
    54    26    56 1   
    55    27    28 ar  
    56    27    57 1   
    57    29    30 1   
    58    29    31 1   
    59    29    38 1   
    60    30    31 1   
    61    30    58 1   
    62    30    59 1   
    63    31    60 1   
    64    31    61 1   
    65    32    33 1   
    66    32    34 1   
@<TRIPOS>SUBSTRUCTURE
     1 XC2         1 TEMP              0 ****  ****    0 ROOT
