@<TRIPOS>MOLECULE
XC2
   61    66     1     0     0
SMALL
No Charge or Current Charge


@<TRIPOS>ATOM
      1 S6          -2.6320    -7.0740    -0.7990 ss         1 XC2      -0.314600
      2 C5          -1.1460    -8.1670    -1.0670 c5         1 XC2       0.058600
      3 C11         -0.1730    -7.3990    -2.0210 c5         1 XC2      -0.073300
      4 N10         -0.3760    -5.9830    -1.6090 n          1 XC2      -0.223000
      5 C6          -1.5750    -5.6950    -1.0390 cc         1 XC2       0.239200
      6 C7          -1.9480    -4.4560    -0.5450 cd         1 XC2      -0.201200
      7 C8          -0.9620    -3.3770    -0.6550 cd         1 XC2       0.034800
      8 C9           0.2440    -3.6530    -1.3230 cc         1 XC2      -0.241400
      9 C10          0.5790    -5.0030    -1.8620 c          1 XC2       0.583200
     10 O25          1.6230    -5.2810    -2.4440 o          1 XC2      -0.554000
     11 C26          1.3630    -2.6540    -1.5610 c3         1 XC2       0.239000
     12 N5           1.2950    -1.9990    -2.8890 n3         1 XC2      -0.692600
     13 C1           0.0440    -1.2140    -3.1330 c6         1 XC2       0.132800
     14 C2           0.0290    -0.5810    -4.5560 c6         1 XC2       0.152100
     15 O3           1.2150     0.2250    -4.7620 os         1 XC2      -0.468000
     16 C34          2.4380    -0.5350    -4.6040 c6         1 XC2       0.152100
     17 C4           2.5040    -1.1700    -3.1830 c6         1 XC2       0.132800
     18 C24         -1.2540    -2.0100    -0.0300 c3         1 XC2      -0.006900
     19 C15         -1.4260    -2.0110     1.4990 ca         1 XC2      -0.045300
     20 C20         -0.7360    -2.9870     2.2540 ca         1 XC2      -0.101000
     21 C19         -0.8770    -3.0590     3.6470 ca         1 XC2      -0.098000
     22 C18         -1.7050    -2.1490     4.3140 ca         1 XC2      -0.119000
     23 C17         -2.3830    -1.1520     3.5930 ca         1 XC2      -0.035000
     24 C21         -3.1960    -0.2390     4.2910 ca         1 XC2      -0.103000
     25 C27         -3.8730     0.7770     3.6020 ca         1 XC2      -0.116000
     26 C28         -3.7330     0.8870     2.2120 ca         1 XC2      -0.120000
     27 C29         -2.9250    -0.0200     1.5060 ca         1 XC2      -0.093000
     28 C16         -2.2440    -1.0640     2.1830 ca         1 XC2      -0.034000
     29 C22         -3.2770    -4.2070     0.1190 cx         1 XC2      -0.047500
     30 C31         -4.5940    -4.6080    -0.5220 cx         1 XC2      -0.133900
     31 C30         -4.2430    -3.1550    -0.3960 cx         1 XC2      -0.133900
     32 C23         -0.5560    -7.7150    -3.4940 c          1 XC2       0.729000
     33 O33         -0.2000    -8.7870    -3.9630 o          1 XC2      -0.697000
     34 O32         -1.1330    -6.8750    -4.1720 o          1 XC2      -0.697000
     35 H5C1        -1.4450    -9.1480    -1.4580 h1         1 XC2       0.073700
     36 H5C2        -0.6650    -8.3290    -0.0930 h1         1 XC2       0.073700
     37 H11          0.8640    -7.7250    -1.8730 h1         1 XC2       0.092700
     38 H22         -3.2240    -4.3230     1.1990 hc         1 XC2       0.069700
     39 H241        -2.1380    -1.6150    -0.5300 hc         1 XC2       0.061200
     40 H242        -0.4900    -1.2690    -0.2680 hc         1 XC2       0.061200
     41 H261         2.3270    -3.1710    -1.4630 h1         1 XC2       0.031700
     42 H262         1.3860    -1.8990    -0.7660 h1         1 XC2       0.031700
     43 H1C1        -0.0500    -0.4070    -2.3920 h1         1 XC2       0.034700
     44 H1C2        -0.8430    -1.8560    -3.0320 h1         1 XC2       0.034700
     45 H4C1         3.4130    -1.7850    -3.1140 h1         1 XC2       0.034700
     46 H4C2         2.6020    -0.3650    -2.4410 h1         1 XC2       0.034700
     47 H2C1        -0.0080    -1.3730    -5.3180 h1         1 XC2       0.049450
     48 H2C2        -0.8620     0.0510    -4.6750 h1         1 XC2       0.049450
     49 H341         3.2990     0.1310    -4.7570 h1         1 XC2       0.049450
     50 H342         2.4760    -1.3240    -5.3700 h1         1 XC2       0.049450
     51 H20         -0.0850    -3.7060     1.7630 ha         1 XC2       0.134000
     52 H19         -0.3440    -3.8230     4.2080 ha         1 XC2       0.110000
     53 H18         -1.8110    -2.2140     5.3950 ha         1 XC2       0.104000
     54 H21         -3.3020    -0.3140     5.3710 ha         1 XC2       0.105000
     55 H27         -4.4990     1.4810     4.1460 ha         1 XC2       0.104000
     56 H28         -4.2500     1.6820     1.6770 ha         1 XC2       0.106000
     57 H29         -2.8370     0.1200     0.4350 ha         1 XC2       0.116000
     58 H311        -5.3720    -5.0010     0.1270 hc         1 XC2       0.070200
     59 H312        -4.5800    -5.0310    -1.5230 hc         1 XC2       0.070200
     60 H301        -4.0090    -2.6330    -1.3210 hc         1 XC2       0.070200
     61 H302        -4.7780    -2.5610     0.3400 hc         1 XC2       0.070200
@<TRIPOS>BOND
     1     1     2 1   
     2     1     5 1   
     3     2     3 1   
     4     2    35 1   
     5     2    36 1   
     6     3     4 1   
     7     3    32 1   
     8     3    37 1   
     9     4     5 1   
    10     4     9 1   
    11     5     6 2   
    12     6     7 1   
    13     6    29 1   
    14     7     8 2   
    15     7    18 1   
    16     8     9 1   
    17     8    11 1   
    18     9    10 2   
    19    11    12 1   
    20    11    41 1   
    21    11    42 1   
    22    12    13 1   
    23    12    17 1   
    24    13    14 1   
    25    13    43 1   
    26    13    44 1   
    27    14    15 1   
    28    14    47 1   
    29    14    48 1   
    30    15    16 1   
    31    16    17 1   
    32    16    49 1   
    33    16    50 1   
    34    17    45 1   
    35    17    46 1   
    36    18    19 1   
    37    18    39 1   
    38    18    40 1   
    39    19    20 ar  
    40    19    28 ar  
    41    20    21 ar  
    42    20    51 1   
    43    21    22 ar  
    44    21    52 1   
    45    22    23 ar  
    46    22    53 1   
    47    23    24 ar  
    48    23    28 ar  
    49    24    25 ar  
    50    24    54 1   
    51    25    26 ar  
    52    25    55 1   
    53    26    27 ar  
    54    26    56 1   
    55    27    28 ar  
    56    27    57 1   
    57    29    30 1   
    58    29    31 1   
    59    29    38 1   
    60    30    31 1   
    61    30    58 1   
    62    30    59 1   
    63    31    60 1   
    64    31    61 1   
    65    32    33 1   
    66    32    34 1   
@<TRIPOS>SUBSTRUCTURE
     1 XC2         1 TEMP              0 ****  ****    0 ROOT
