@<TRIPOS>MOLECULE
XC8
   53    55     1     0     0
SMALL
abcg2


@<TRIPOS>ATOM
      1 C11         -8.2530     9.7470    -7.7940 c3         1 XC8       0.167600
      2 C10         -7.1450    10.5140    -8.4850 c6         1 XC8       0.136300
      3 C01         -2.2790    14.6130   -10.0720 c3         1 XC8      -0.181100
      4 C02         -3.1130    13.9510    -9.0020 c          1 XC8       0.614100
      5 C05         -4.9840    12.3860    -8.6620 c6         1 XC8       0.086700
      6 C06         -4.7370    10.8960    -8.9090 c6         1 XC8       0.161300
      7 C08         -5.7330    10.0640    -8.1010 c6         1 XC8       0.122300
      8 C14         -6.4530    12.7040    -8.9500 c6         1 XC8       0.388300
      9 C16         -7.6390    14.7520    -9.1840 ca         1 XC8       0.142100
     10 C17         -8.7540    14.1910    -9.8000 ca         1 XC8      -0.154000
     11 C18         -9.6860    15.0200   -10.4000 ca         1 XC8      -0.087000
     12 C19         -9.5280    16.3950   -10.3840 ca         1 XC8      -0.097000
     13 C20         -8.4170    16.9500    -9.7610 ca         1 XC8      -0.155300
     14 C21         -8.2390    18.4410    -9.7550 c3         1 XC8       0.359300
     15 C25         -7.4550    16.1380    -9.1570 cp         1 XC8      -0.009000
     16 C26         -6.2340    16.6670    -8.4950 cp         1 XC8      -0.071000
     17 C27         -6.2050    16.8520    -7.1160 ca         1 XC8      -0.050500
     18 C28         -5.0530    17.2940    -6.4810 ca         1 XC8      -0.153000
     19 C29         -3.9330    17.5470    -7.2480 ca         1 XC8       0.195000
     20 C31         -3.9290    17.3800    -8.6180 ca         1 XC8      -0.153000
     21 C32         -5.0870    16.9320    -9.2360 ca         1 XC8      -0.050500
     22 F22         -8.1370    18.9320    -8.5140 f          1 XC8      -0.111667
     23 F23         -9.2620    19.0760   -10.3360 f          1 XC8      -0.111667
     24 F24         -7.1340    18.8170   -10.4150 f          1 XC8      -0.111667
     25 F30         -2.8090    17.9620    -6.6420 f          1 XC8      -0.177000
     26 N04         -4.1350    13.2070    -9.4800 ns         1 XC8      -0.501900
     27 O03         -2.8650    14.0610    -7.8120 o          1 XC8      -0.573100
     28 O07         -3.4010    10.6260    -8.5840 oh         1 XC8      -0.617000
     29 O09         -5.4490    10.2300    -6.7370 oh         1 XC8      -0.695000
     30 O12         -8.1350     9.8820    -6.3900 oh         1 XC8      -0.715000
     31 O13         -7.3100    11.8940    -8.2070 os         1 XC8      -0.451000
     32 O15         -6.6760    14.0250    -8.5720 os         1 XC8      -0.307100
     33 H111        -9.2220    10.1180    -8.1480 h1         1 XC8       0.036700
     34 H112        -8.1720     8.7010    -8.1070 h1         1 XC8       0.036700
     35 H101        -7.2710    10.3270    -9.5640 h1         1 XC8       0.036700
     36 H013        -1.7150    15.4410    -9.6510 hc         1 XC8       0.058700
     37 H012        -1.5690    13.8910   -10.4790 hc         1 XC8       0.058700
     38 H011        -2.8850    14.9800   -10.8990 hc         1 XC8       0.058700
     39 H051        -4.7760    12.6180    -7.6160 h1         1 XC8       0.144700
     40 H061        -4.9310    10.6910    -9.9750 h1         1 XC8       0.013700
     41 H081        -5.6340     9.0090    -8.4080 h1         1 XC8       0.029700
     42 H141        -6.6490    12.5770   -10.0300 h2         1 XC8       0.016700
     43 H171        -8.9150    13.1220    -9.8050 ha         1 XC8       0.129000
     44 H181       -10.5540    14.5850   -10.8770 ha         1 XC8       0.119000
     45 H191       -10.2760    17.0170   -10.8540 ha         1 XC8       0.135000
     46 H271        -7.0880    16.6460    -6.5260 ha         1 XC8       0.118000
     47 H281        -5.0300    17.4340    -5.4080 ha         1 XC8       0.130500
     48 H311        -3.0370    17.5850    -9.1950 ha         1 XC8       0.130500
     49 H321        -5.0880    16.7820   -10.3070 ha         1 XC8       0.118000
     50 H041        -4.2310    13.1230   -10.4820 hn         1 XC8       0.299500
     51 H071        -3.1860     9.7380    -8.8860 ho         1 XC8       0.442000
     52 H091        -6.2580    10.0200    -6.2460 ho         1 XC8       0.534000
     53 H121        -8.6480     9.1870    -5.9670 ho         1 XC8       0.513000
@<TRIPOS>BOND
     1     1     2 1   
     2     1    30 1   
     3     1    33 1   
     4     1    34 1   
     5     2     7 1   
     6     2    31 1   
     7     2    35 1   
     8     3     4 1   
     9     3    36 1   
    10     3    37 1   
    11     3    38 1   
    12     4    26 1   
    13     4    27 2   
    14     5     6 1   
    15     5     8 1   
    16     5    26 1   
    17     5    39 1   
    18     6     7 1   
    19     6    28 1   
    20     6    40 1   
    21     7    29 1   
    22     7    41 1   
    23     8    31 1   
    24     8    32 1   
    25     8    42 1   
    26     9    10 ar  
    27     9    15 ar  
    28     9    32 1   
    29    10    11 ar  
    30    10    43 1   
    31    11    12 ar  
    32    11    44 1   
    33    12    13 ar  
    34    12    45 1   
    35    13    14 1   
    36    13    15 ar  
    37    14    22 1   
    38    14    23 1   
    39    14    24 1   
    40    15    16 1   
    41    16    17 ar  
    42    16    21 ar  
    43    17    18 ar  
    44    17    46 1   
    45    18    19 ar  
    46    18    47 1   
    47    19    20 ar  
    48    19    25 1   
    49    20    21 ar  
    50    20    48 1   
    51    21    49 1   
    52    26    50 1   
    53    28    51 1   
    54    29    52 1   
    55    30    53 1   
@<TRIPOS>SUBSTRUCTURE
     1 XC8         1 TEMP              0 ****  ****    0 ROOT
