@<TRIPOS>MOLECULE
XC8
   53    55     1     0     0
SMALL
No Charge or Current Charge


@<TRIPOS>ATOM
      1 C11         -8.3560     9.6820    -7.8810 c3         1 XC8       0.167600
      2 C10         -7.2130    10.4130    -8.6610 c6         1 XC8       0.136300
      3 C01         -2.2370    14.8060    -9.7890 c3         1 XC8      -0.181100
      4 C02         -3.1660    14.0600    -8.8420 c          1 XC8       0.614100
      5 C05         -4.8410    12.1540    -8.7080 c6         1 XC8       0.086700
      6 C06         -4.7090    10.6430    -9.0790 c6         1 XC8       0.161300
      7 C08         -5.8070     9.8010    -8.3600 c6         1 XC8       0.122300
      8 C14         -6.2940    12.6140    -9.0280 c6         1 XC8       0.388300
      9 C16         -7.5290    14.7370    -9.1940 ca         1 XC8       0.142100
     10 C17         -8.6650    14.1410    -9.7780 ca         1 XC8      -0.154000
     11 C18         -9.6910    14.9490   -10.2850 ca         1 XC8      -0.087000
     12 C19         -9.5920    16.3460   -10.2140 ca         1 XC8      -0.097000
     13 C20         -8.4600    16.9690    -9.6360 ca         1 XC8      -0.155300
     14 C21         -8.3880    18.5080    -9.5730 c3         1 XC8       0.359300
     15 C25         -7.4050    16.1510    -9.1250 cp         1 XC8      -0.009000
     16 C26         -6.1660    16.7500    -8.5460 cp         1 XC8      -0.071000
     17 C27         -5.9810    16.8140    -7.1440 ca         1 XC8      -0.050500
     18 C28         -4.8100    17.3670    -6.5990 ca         1 XC8      -0.153000
     19 C29         -3.8070    17.8550    -7.4510 ca         1 XC8       0.195000
     20 C31         -3.9680    17.7950    -8.8440 ca         1 XC8      -0.153000
     21 C32         -5.1390    17.2410    -9.3880 ca         1 XC8      -0.050500
     22 F22         -8.0880    18.9540    -8.3310 f          1 XC8      -0.111667
     23 F23         -9.5520    19.1070    -9.9150 f          1 XC8      -0.111667
     24 F24         -7.4470    18.9980   -10.4100 f          1 XC8      -0.111667
     25 F30         -2.6800    18.3850    -6.9280 f          1 XC8      -0.177000
     26 N04         -3.8190    12.9850    -9.3980 ns         1 XC8      -0.501900
     27 O03         -3.3090    14.3810    -7.6720 o          1 XC8      -0.573100
     28 O07         -3.4180    10.1340    -8.7170 oh         1 XC8      -0.617000
     29 O09         -5.5610     9.7890    -6.9410 oh         1 XC8      -0.695000
     30 O12         -8.1920     9.7510    -6.4460 oh         1 XC8      -0.715000
     31 O13         -7.2280    11.8080    -8.2780 os         1 XC8      -0.451000
     32 O15         -6.4730    13.9990    -8.6890 os         1 XC8      -0.307100
     33 H111        -9.3100    10.1390    -8.1750 h1         1 XC8       0.036700
     34 H112        -8.3830     8.6340    -8.2090 h1         1 XC8       0.036700
     35 H101        -7.4270    10.3370    -9.7370 h1         1 XC8       0.036700
     36 H013        -1.7140    15.6350    -9.3000 hc         1 XC8       0.058700
     37 H012        -1.5380    14.0930   -10.2410 hc         1 XC8       0.058700
     38 H011        -2.8150    15.1480   -10.6550 hc         1 XC8       0.058700
     39 H051        -4.7040    12.2540    -7.6220 h1         1 XC8       0.144700
     40 H061        -4.8490    10.5420   -10.1650 h1         1 XC8       0.013700
     41 H081        -5.7830     8.7730    -8.7510 h1         1 XC8       0.029700
     42 H141        -6.4770    12.4860   -10.1050 h2         1 XC8       0.016700
     43 H171        -8.7730    13.0630    -9.8430 ha         1 XC8       0.129000
     44 H181       -10.5700    14.4910   -10.7350 ha         1 XC8       0.119000
     45 H191       -10.4090    16.9400   -10.6200 ha         1 XC8       0.135000
     46 H271        -6.7550    16.4310    -6.4820 ha         1 XC8       0.118000
     47 H281        -4.6760    17.4140    -5.5220 ha         1 XC8       0.130500
     48 H311        -3.1860    18.1720    -9.4970 ha         1 XC8       0.130500
     49 H321        -5.2590    17.1890   -10.4680 ha         1 XC8       0.118000
     50 H041        -3.6030    12.7770   -10.3660 hn         1 XC8       0.299500
     51 H071        -3.5380     9.8070    -7.7960 ho         1 XC8       0.442000
     52 H091        -6.4810     9.8150    -6.5430 ho         1 XC8       0.534000
     53 H121        -9.0630     9.5110    -6.0460 ho         1 XC8       0.513000
@<TRIPOS>BOND
     1     1     2 1   
     2     1    30 1   
     3     1    33 1   
     4     1    34 1   
     5     2     7 1   
     6     2    31 1   
     7     2    35 1   
     8     3     4 1   
     9     3    36 1   
    10     3    37 1   
    11     3    38 1   
    12     4    26 1   
    13     4    27 2   
    14     5     6 1   
    15     5     8 1   
    16     5    26 1   
    17     5    39 1   
    18     6     7 1   
    19     6    28 1   
    20     6    40 1   
    21     7    29 1   
    22     7    41 1   
    23     8    31 1   
    24     8    32 1   
    25     8    42 1   
    26     9    10 ar  
    27     9    15 ar  
    28     9    32 1   
    29    10    11 ar  
    30    10    43 1   
    31    11    12 ar  
    32    11    44 1   
    33    12    13 ar  
    34    12    45 1   
    35    13    14 1   
    36    13    15 ar  
    37    14    22 1   
    38    14    23 1   
    39    14    24 1   
    40    15    16 1   
    41    16    17 ar  
    42    16    21 ar  
    43    17    18 ar  
    44    17    46 1   
    45    18    19 ar  
    46    18    47 1   
    47    19    20 ar  
    48    19    25 1   
    49    20    21 ar  
    50    20    48 1   
    51    21    49 1   
    52    26    50 1   
    53    28    51 1   
    54    29    52 1   
    55    30    53 1   
@<TRIPOS>SUBSTRUCTURE
     1 XC8         1 TEMP              0 ****  ****    0 ROOT
