@<TRIPOS>MOLECULE
XCA
   71    74     1     0     0
SMALL
abcg2


@<TRIPOS>ATOM
      1 O3         -14.7990    18.5030    15.8930 o          1 XCA      -0.742500
      2 C27        -13.9930    19.3590    15.4400 c          1 XCA       0.708000
      3 O2         -12.9180    19.7140    15.9920 o          1 XCA      -0.742500
      4 C25        -14.3600    20.0440    14.1030 c3         1 XCA      -0.192700
      5 C26        -14.6590    21.5280    14.3380 c3         1 XCA      -0.060100
      6 C24        -13.2560    19.8660    13.0570 c3         1 XCA      -0.046400
      7 C23        -12.9500    18.4070    12.7280 c3         1 XCA      -0.073400
      8 C22        -11.9200    18.2210    11.6090 c3         1 XCA      -0.068400
      9 C20        -10.5400    18.8630    11.8430 c3         1 XCA      -0.049700
     10 C21         -9.9080    18.3200    13.1260 c3         1 XCA      -0.090100
     11 C17         -9.6600    18.6630    10.5960 c5         1 XCA      -0.051700
     12 C16        -10.2970    19.2920     9.3190 c5         1 XCA      -0.077400
     13 C15         -9.1330    19.7470     8.4090 c5         1 XCA      -0.072400
     14 C14         -7.9010    19.1390     9.0740 c5         1 XCA      -0.068700
     15 C8          -6.5230    19.6420     8.6660 c6         1 XCA      -0.042700
     16 C7          -6.3250    19.5190     7.1540 c6         1 XCA      -0.037200
     17 C6          -4.8920    19.5350     6.7300 c2         1 XCA      -0.209200
     18 C13         -8.2060    19.2180    10.5870 c5         1 XCA      -0.036000
     19 C18         -8.1810    20.6620    11.1120 c3         1 XCA      -0.078100
     20 C12         -7.1450    18.3630    11.2900 c6         1 XCA      -0.061400
     21 C11         -5.7220    18.8140    10.9350 c6         1 XCA      -0.071400
     22 C9          -5.4380    18.8510     9.4240 c6         1 XCA      -0.044700
     23 C10         -4.0080    19.3440     9.0740 c6         1 XCA       0.000200
     24 C1          -2.9640    18.3390     9.6080 c6         1 XCA      -0.060400
     25 C19         -3.7240    20.7390     9.6710 c3         1 XCA      -0.079100
     26 C5          -3.8430    19.4250     7.5590 ce         1 XCA      -0.066200
     27 C4          -2.4830    19.3890     7.0340 ce         1 XCA      -0.224000
     28 C3          -1.4200    19.0840     7.7900 c2         1 XCA       0.062900
     29 O1          -0.1630    19.1280     7.2440 oh         1 XCA      -0.550100
     30 C2          -1.5290    18.7040     9.2300 c6         1 XCA      -0.066200
     31 H2         -15.2690    19.5590    13.7350 hc         1 XCA       0.030700
     32 H3         -15.4690    21.6620    15.0590 hc         1 XCA       0.012700
     33 H4         -13.7730    22.0370    14.7250 hc         1 XCA       0.012700
     34 H5         -14.9520    22.0170    13.4050 hc         1 XCA       0.012700
     35 H6         -12.3540    20.3640    13.4210 hc         1 XCA       0.017200
     36 H7         -13.5510    20.3870    12.1390 hc         1 XCA       0.017200
     37 H8         -13.8780    17.9120    12.4220 hc         1 XCA       0.049200
     38 H9         -12.6220    17.8920    13.6340 hc         1 XCA       0.049200
     39 H10        -12.3480    18.6240    10.6870 hc         1 XCA       0.019200
     40 H11        -11.7740    17.1480    11.4360 hc         1 XCA       0.019200
     41 H12        -10.6880    19.9400    11.9700 hc         1 XCA       0.052700
     42 H13        -10.5850    18.4300    13.9730 hc         1 XCA       0.038033
     43 H14         -9.6720    17.2570    13.0230 hc         1 XCA       0.038033
     44 H15         -8.9870    18.8430    13.3780 hc         1 XCA       0.038033
     45 H16         -9.5720    17.5810    10.4360 hc         1 XCA       0.036700
     46 H17        -10.9330    20.1360     9.5920 hc         1 XCA       0.043200
     47 H18        -10.9380    18.5720     8.8110 hc         1 XCA       0.043200
     48 H19         -9.0550    20.8370     8.3850 hc         1 XCA       0.034700
     49 H20         -9.2570    19.4140     7.3780 hc         1 XCA       0.034700
     50 H21         -7.9130    18.0660     8.8340 hc         1 XCA       0.039700
     51 H22         -6.4360    20.6990     8.9330 hc         1 XCA       0.052700
     52 H23         -6.8770    20.3130     6.6400 hc         1 XCA       0.046700
     53 H24         -6.7840    18.5820     6.8060 hc         1 XCA       0.046700
     54 H25         -4.7000    19.5950     5.6610 ha         1 XCA       0.166000
     55 H26         -8.3670    20.6800    12.1870 hc         1 XCA       0.033700
     56 H27         -7.2200    21.1440    10.9390 hc         1 XCA       0.033700
     57 H28         -8.9470    21.2760    10.6370 hc         1 XCA       0.033700
     58 H29         -7.2580    18.3910    12.3740 hc         1 XCA       0.044200
     59 H30         -7.2840    17.3200    10.9840 hc         1 XCA       0.044200
     60 H31         -5.0140    18.1440    11.4260 hc         1 XCA       0.035700
     61 H32         -5.5490    19.8030    11.3630 hc         1 XCA       0.035700
     62 H33         -5.5020    17.8160     9.0590 hc         1 XCA       0.044700
     63 H34         -3.1980    17.3510     9.2020 hc         1 XCA       0.047200
     64 H35         -3.0360    18.2670    10.6930 hc         1 XCA       0.047200
     65 H36         -3.6410    20.6920    10.7580 hc         1 XCA       0.035367
     66 H37         -2.7900    21.1450     9.2820 hc         1 XCA       0.035367
     67 H38         -4.5170    21.4420     9.4160 hc         1 XCA       0.035367
     68 H39         -2.3360    19.6180     5.9840 ha         1 XCA       0.185000
     69 H40          0.4780    18.7780     7.8760 ho         1 XCA       0.454000
     70 H41         -0.8640    17.8560     9.4280 hc         1 XCA       0.046700
     71 H42         -1.1590    19.5290     9.8500 hc         1 XCA       0.046700
@<TRIPOS>BOND
     1     1     2 1   
     2     2     3 1   
     3     2     4 1   
     4     4     5 1   
     5     4     6 1   
     6     4    31 1   
     7     5    32 1   
     8     5    33 1   
     9     5    34 1   
    10     6     7 1   
    11     6    35 1   
    12     6    36 1   
    13     7     8 1   
    14     7    37 1   
    15     7    38 1   
    16     8     9 1   
    17     8    39 1   
    18     8    40 1   
    19     9    10 1   
    20     9    11 1   
    21     9    41 1   
    22    10    42 1   
    23    10    43 1   
    24    10    44 1   
    25    11    12 1   
    26    11    18 1   
    27    11    45 1   
    28    12    13 1   
    29    12    46 1   
    30    12    47 1   
    31    13    14 1   
    32    13    48 1   
    33    13    49 1   
    34    14    15 1   
    35    14    18 1   
    36    14    50 1   
    37    15    16 1   
    38    15    22 1   
    39    15    51 1   
    40    16    17 1   
    41    16    52 1   
    42    16    53 1   
    43    17    26 2   
    44    17    54 1   
    45    18    19 1   
    46    18    20 1   
    47    19    55 1   
    48    19    56 1   
    49    19    57 1   
    50    20    21 1   
    51    20    58 1   
    52    20    59 1   
    53    21    22 1   
    54    21    60 1   
    55    21    61 1   
    56    22    23 1   
    57    22    62 1   
    58    23    24 1   
    59    23    25 1   
    60    23    26 1   
    61    24    30 1   
    62    24    63 1   
    63    24    64 1   
    64    25    65 1   
    65    25    66 1   
    66    25    67 1   
    67    26    27 1   
    68    27    28 2   
    69    27    68 1   
    70    28    29 1   
    71    28    30 1   
    72    29    69 1   
    73    30    70 1   
    74    30    71 1   
@<TRIPOS>SUBSTRUCTURE
     1 XCA         1 TEMP              0 ****  ****    0 ROOT
