@<TRIPOS>MOLECULE
XCA
   71    74     1     0     0
SMALL
No Charge or Current Charge


@<TRIPOS>ATOM
      1 O3         -15.0500    18.2060    15.7730 o          1 XCA      -0.742500
      2 C27        -14.2940    19.1290    15.5040 c          1 XCA       0.708000
      3 O2         -13.3650    19.4640    16.2250 o          1 XCA      -0.742500
      4 C25        -14.5490    19.9190    14.1960 c3         1 XCA      -0.192700
      5 C26        -14.9130    21.3930    14.4980 c3         1 XCA      -0.060100
      6 C24        -13.3620    19.8160    13.2000 c3         1 XCA      -0.046400
      7 C23        -13.0230    18.3650    12.7760 c3         1 XCA      -0.073400
      8 C22        -11.9660    18.2500    11.6420 c3         1 XCA      -0.068400
      9 C20        -10.5660    18.9110    11.8800 c3         1 XCA      -0.049700
     10 C21         -9.8900    18.3260    13.1470 c3         1 XCA      -0.090100
     11 C17         -9.6610    18.7740    10.5690 c5         1 XCA      -0.051700
     12 C16        -10.3060    19.4900     9.3220 c5         1 XCA      -0.077400
     13 C15         -9.1260    19.9000     8.3880 c5         1 XCA      -0.072400
     14 C14         -7.9100    19.2060     9.0410 c5         1 XCA      -0.068700
     15 C8          -6.5040    19.6660     8.5680 c6         1 XCA      -0.042700
     16 C7          -6.2840    19.4190     7.0540 c6         1 XCA      -0.037200
     17 C6          -4.8190    19.3760     6.6350 c2         1 XCA      -0.209200
     18 C13         -8.1830    19.3950    10.5740 c5         1 XCA      -0.036000
     19 C18         -8.0830    20.8980    11.0810 c3         1 XCA      -0.078100
     20 C12         -7.1150    18.5450    11.3450 c6         1 XCA      -0.061400
     21 C11         -5.6490    18.9270    10.9880 c6         1 XCA      -0.071400
     22 C9          -5.3850    18.8910     9.4200 c6         1 XCA      -0.044700
     23 C10         -3.8920    19.3090     9.0210 c6         1 XCA       0.000200
     24 C1          -2.8500    18.3240     9.6490 c6         1 XCA      -0.060400
     25 C19         -3.5820    20.7810     9.4640 c3         1 XCA      -0.079100
     26 C5          -3.7610    19.2620     7.4750 ce         1 XCA      -0.066200
     27 C4          -2.3880    19.1740     6.9480 ce         1 XCA      -0.224000
     28 C3          -1.3110    18.8800     7.7010 c2         1 XCA       0.062900
     29 O1          -0.0710    18.8020     7.1920 oh         1 XCA      -0.550100
     30 C2          -1.3950    18.6100     9.1950 c6         1 XCA      -0.066200
     31 H2         -15.4230    19.4740    13.7050 hc         1 XCA       0.030700
     32 H3         -15.7710    21.4440    15.1800 hc         1 XCA       0.012700
     33 H4         -14.0710    21.9190    14.9650 hc         1 XCA       0.012700
     34 H5         -15.1790    21.9230    13.5760 hc         1 XCA       0.012700
     35 H6         -12.4780    20.2810    13.6520 hc         1 XCA       0.017200
     36 H7         -13.6010    20.3970    12.3010 hc         1 XCA       0.017200
     37 H8         -13.9430    17.8840    12.4220 hc         1 XCA       0.049200
     38 H9         -12.7030    17.7850    13.6480 hc         1 XCA       0.049200
     39 H10        -12.4220    18.6840    10.7450 hc         1 XCA       0.019200
     40 H11        -11.8190    17.1860    11.4200 hc         1 XCA       0.019200
     41 H12        -10.7700    19.9750    12.1260 hc         1 XCA       0.052700
     42 H13        -10.5780    18.2810    13.9960 hc         1 XCA       0.038033
     43 H14         -9.5070    17.3160    12.9610 hc         1 XCA       0.038033
     44 H15         -9.0680    18.9690    13.4740 hc         1 XCA       0.038033
     45 H16         -9.5990    17.6960    10.3700 hc         1 XCA       0.036700
     46 H17        -10.8800    20.3760     9.6150 hc         1 XCA       0.043200
     47 H18        -11.0060    18.8240     8.8040 hc         1 XCA       0.043200
     48 H19         -9.0000    20.9880     8.3500 hc         1 XCA       0.034700
     49 H20         -9.2840    19.5630     7.3570 hc         1 XCA       0.034700
     50 H21         -7.9410    18.1380     8.7890 hc         1 XCA       0.039700
     51 H22         -6.4110    20.7440     8.7490 hc         1 XCA       0.052700
     52 H23         -6.8110    20.1890     6.4730 hc         1 XCA       0.046700
     53 H24         -6.7400    18.4610     6.7670 hc         1 XCA       0.046700
     54 H25         -4.6540    19.3750     5.5570 ha         1 XCA       0.166000
     55 H26         -8.2190    20.9510    12.1670 hc         1 XCA       0.033700
     56 H27         -7.1160    21.3580    10.8530 hc         1 XCA       0.033700
     57 H28         -8.8540    21.5370    10.6380 hc         1 XCA       0.033700
     58 H29         -7.2300    18.6470    12.4280 hc         1 XCA       0.044200
     59 H30         -7.2700    17.4800    11.1230 hc         1 XCA       0.044200
     60 H31         -4.9800    18.2280    11.5050 hc         1 XCA       0.035700
     61 H32         -5.4240    19.9190    11.3960 hc         1 XCA       0.035700
     62 H33         -5.4850    17.8340     9.1360 hc         1 XCA       0.044700
     63 H34         -3.1120    17.2960     9.3640 hc         1 XCA       0.047200
     64 H35         -2.8840    18.3580    10.7450 hc         1 XCA       0.047200
     65 H36         -3.5390    20.8790    10.5550 hc         1 XCA       0.035367
     66 H37         -2.6180    21.1280     9.0770 hc         1 XCA       0.035367
     67 H38         -4.3320    21.4890     9.0950 hc         1 XCA       0.035367
     68 H39         -2.2600    19.3400     5.8780 ha         1 XCA       0.185000
     69 H40          0.5410    18.5870     7.9290 ho         1 XCA       0.454000
     70 H41         -0.7590    17.7560     9.4680 hc         1 XCA       0.046700
     71 H42         -0.9980    19.4760     9.7440 hc         1 XCA       0.046700
@<TRIPOS>BOND
     1     1     2 1   
     2     2     3 1   
     3     2     4 1   
     4     4     5 1   
     5     4     6 1   
     6     4    31 1   
     7     5    32 1   
     8     5    33 1   
     9     5    34 1   
    10     6     7 1   
    11     6    35 1   
    12     6    36 1   
    13     7     8 1   
    14     7    37 1   
    15     7    38 1   
    16     8     9 1   
    17     8    39 1   
    18     8    40 1   
    19     9    10 1   
    20     9    11 1   
    21     9    41 1   
    22    10    42 1   
    23    10    43 1   
    24    10    44 1   
    25    11    12 1   
    26    11    18 1   
    27    11    45 1   
    28    12    13 1   
    29    12    46 1   
    30    12    47 1   
    31    13    14 1   
    32    13    48 1   
    33    13    49 1   
    34    14    15 1   
    35    14    18 1   
    36    14    50 1   
    37    15    16 1   
    38    15    22 1   
    39    15    51 1   
    40    16    17 1   
    41    16    52 1   
    42    16    53 1   
    43    17    26 2   
    44    17    54 1   
    45    18    19 1   
    46    18    20 1   
    47    19    55 1   
    48    19    56 1   
    49    19    57 1   
    50    20    21 1   
    51    20    58 1   
    52    20    59 1   
    53    21    22 1   
    54    21    60 1   
    55    21    61 1   
    56    22    23 1   
    57    22    62 1   
    58    23    24 1   
    59    23    25 1   
    60    23    26 1   
    61    24    30 1   
    62    24    63 1   
    63    24    64 1   
    64    25    65 1   
    65    25    66 1   
    66    25    67 1   
    67    26    27 1   
    68    27    28 2   
    69    27    68 1   
    70    28    29 1   
    71    28    30 1   
    72    29    69 1   
    73    30    70 1   
    74    30    71 1   
@<TRIPOS>SUBSTRUCTURE
     1 XCA         1 TEMP              0 ****  ****    0 ROOT
