@<TRIPOS>MOLECULE
XCB
   61    64     1     0     0
SMALL
abcg2


@<TRIPOS>ATOM
      1 C15        -22.7690   -11.8870    11.9390 ca         1 XCB      -0.046200
      2 C14        -23.2880   -12.6090    13.0200 ca         1 XCB      -0.129300
      3 C13        -26.5370   -14.1530    16.3100 ca         1 XCB      -0.058500
      4 C10        -29.8490   -15.6320    17.4160 c3         1 XCB       0.195100
      5 C01        -22.4850   -11.8690    15.2760 c3         1 XCB      -0.089100
      6 C02        -23.6530   -11.9160    14.3080 c3         1 XCB       0.236600
      7 C06        -26.9190   -13.3150    15.2620 ca         1 XCB      -0.132600
      8 C07        -28.2680   -13.2290    14.9240 ca         1 XCB      -0.058500
      9 C08        -29.2170   -13.9590    15.6200 ca         1 XCB      -0.122500
     10 C09        -28.8420   -14.7980    16.6660 ca         1 XCB      -0.067300
     11 C12        -27.4920   -14.8790    17.0000 ca         1 XCB      -0.122500
     12 C17        -22.0110   -10.2830    10.5680 cc         1 XCB      -0.054300
     13 C18        -21.7440    -8.8360    10.2120 c          1 XCB       0.726200
     14 C21        -21.9080   -11.4620     9.8610 cd         1 XCB      -0.154400
     15 C22        -21.3910   -11.6980     8.5100 ca         1 XCB       0.083200
     16 C23        -20.1540   -11.2120     8.0850 ca         1 XCB      -0.067000
     17 C24        -19.6730   -11.5190     6.8260 ca         1 XCB      -0.110000
     18 C25        -20.3940   -12.3120     5.9330 ca         1 XCB      -0.112300
     19 C26        -19.8330   -12.6170     4.5860 c3         1 XCB      -0.206100
     20 C28        -19.5450    -9.9300     3.7270 c3         1 XCB      -0.334100
     21 C31        -21.6250   -12.7920     6.3690 ca         1 XCB       0.148000
     22 C33        -22.1190   -12.4960     7.6290 ca         1 XCB      -0.113000
     23 C34        -22.3870   -12.5020    10.7270 ca         1 XCB      -0.081800
     24 C35        -22.5030   -13.8910    10.6020 ca         1 XCB      -0.066000
     25 C36        -23.0020   -14.6120    11.6660 ca         1 XCB      -0.159000
     26 C37        -23.3890   -13.9790    12.8580 ca         1 XCB      -0.099000
     27 N11        -31.1880   -15.0780    17.3580 n8         1 XCB      -0.998200
     28 N16        -22.5230   -10.5560    11.8040 na         1 XCB      -0.195700
     29 O03        -24.7110   -12.6100    14.9790 os         1 XCB      -0.454100
     30 O05        -26.2300   -11.8340    13.5340 o          1 XCB      -0.466000
     31 O19        -21.8870    -8.0360    11.1570 o          1 XCB      -0.699500
     32 O20        -21.4310    -8.5920     9.0370 o          1 XCB      -0.699500
     33 O29        -19.8730   -11.9280     2.0370 o          1 XCB      -0.526500
     34 O30        -21.8190   -11.2250     3.4610 o          1 XCB      -0.526500
     35 S27        -20.3820   -11.4460     3.3200 s6         1 XCB       1.066000
     36 CL1        -22.5790   -13.8190     5.3480 cl         1 XCB      -0.225000
     37 H131       -25.4990   -14.2410    16.5980 ha         1 XCB       0.134000
     38 H102       -29.8750   -16.6230    16.9530 h1         1 XCB       0.033700
     39 H101       -29.4740   -15.7920    18.4360 h1         1 XCB       0.033700
     40 H013       -22.7560   -11.3410    16.1910 hc         1 XCB       0.045367
     41 H011       -22.1430   -12.8720    15.5330 hc         1 XCB       0.045367
     42 H012       -21.6530   -11.3360    14.8160 hc         1 XCB       0.045367
     43 H021       -23.9850   -10.8940    14.1000 h1         1 XCB       0.064700
     44 H071       -28.5810   -12.5830    14.1140 ha         1 XCB       0.134000
     45 H081       -30.2620   -13.8740    15.3510 ha         1 XCB       0.119500
     46 H121       -27.1810   -15.5190    17.8170 ha         1 XCB       0.119500
     47 H231       -19.5550   -10.6100     8.7520 ha         1 XCB       0.138000
     48 H241       -18.7000   -11.1480     6.5250 ha         1 XCB       0.097000
     49 H261       -20.1370   -13.5940     4.2030 h1         1 XCB       0.097200
     50 H262       -18.7430   -12.5780     4.5820 h1         1 XCB       0.097200
     51 H281       -19.8760    -9.5690     4.6980 h1         1 XCB       0.103700
     52 H282       -18.4690   -10.0930     3.7270 h1         1 XCB       0.103700
     53 H283       -19.8120    -9.2070     2.9560 h1         1 XCB       0.103700
     54 H331       -23.0850   -12.8830     7.9230 ha         1 XCB       0.133000
     55 H351       -22.2060   -14.3970     9.6910 ha         1 XCB       0.108000
     56 H361       -23.1000   -15.6870    11.5890 ha         1 XCB       0.095000
     57 H371       -23.7780   -14.5880    13.6640 ha         1 XCB       0.099000
     58 H112       -31.8420   -15.7420    17.7500 hn         1 XCB       0.395000
     59 H111       -31.2410   -14.2520    17.9410 hn         1 XCB       0.395000
     60 H161       -22.6900    -9.8250    12.4770 hn         1 XCB       0.370000
     61 C04        -25.9430   -12.5100    14.4910 c          1 XCB       0.605700
@<TRIPOS>BOND
     1     1     2 ar  
     2     1    23 ar  
     3     1    28 1   
     4     2     6 1   
     5     2    26 ar  
     6     3     7 ar  
     7     3    11 ar  
     8     3    37 1   
     9     4    10 1   
    10     4    27 1   
    11     4    38 1   
    12     4    39 1   
    13     5     6 1   
    14     5    40 1   
    15     5    41 1   
    16     5    42 1   
    17     6    29 1   
    18     6    43 1   
    19     7     8 ar  
    20     7    61 1   
    21     8     9 ar  
    22     8    44 1   
    23     9    10 ar  
    24     9    45 1   
    25    10    11 ar  
    26    11    46 1   
    27    12    13 1   
    28    12    14 2   
    29    12    28 1   
    30    13    31 1   
    31    13    32 1   
    32    14    15 1   
    33    14    23 1   
    34    15    16 ar  
    35    15    22 ar  
    36    16    17 ar  
    37    16    47 1   
    38    17    18 ar  
    39    17    48 1   
    40    18    19 1   
    41    18    21 ar  
    42    19    35 1   
    43    19    49 1   
    44    19    50 1   
    45    20    35 1   
    46    20    51 1   
    47    20    52 1   
    48    20    53 1   
    49    21    22 ar  
    50    21    36 1   
    51    22    54 1   
    52    23    24 ar  
    53    24    25 ar  
    54    24    55 1   
    55    25    26 ar  
    56    25    56 1   
    57    26    57 1   
    58    27    58 1   
    59    27    59 1   
    60    28    60 1   
    61    29    61 1   
    62    30    61 2   
    63    33    35 2   
    64    34    35 2   
@<TRIPOS>SUBSTRUCTURE
     1 XCB         1 TEMP              0 ****  ****    0 ROOT
