@<TRIPOS>MOLECULE
XCB
   61    64     1     0     0
SMALL
No Charge or Current Charge


@<TRIPOS>ATOM
      1 C15        -22.6340   -12.0150    12.1020 ca         1 XCB      -0.046200
      2 C14        -22.8490   -12.7650    13.2750 ca         1 XCB      -0.129300
      3 C13        -26.6510   -14.0910    16.0970 ca         1 XCB      -0.058500
      4 C10        -30.2560   -15.3100    16.6230 c3         1 XCB       0.195100
      5 C01        -22.1430   -12.3170    15.6850 c3         1 XCB      -0.089100
      6 C02        -23.2220   -12.1040    14.6080 c3         1 XCB       0.236600
      7 C06        -26.8040   -13.1490    15.0540 ca         1 XCB      -0.132600
      8 C07        -28.0970   -12.9210    14.5310 ca         1 XCB      -0.058500
      9 C08        -29.2080   -13.6170    15.0390 ca         1 XCB      -0.122500
     10 C09        -29.0510   -14.5520    16.0780 ca         1 XCB      -0.067300
     11 C12        -27.7660   -14.7840    16.6030 ca         1 XCB      -0.122500
     12 C17        -22.3670   -10.2910    10.5940 cc         1 XCB      -0.054300
     13 C18        -22.3690    -8.9090    10.0110 c          1 XCB       0.726200
     14 C21        -22.1430   -11.5210     9.9500 cd         1 XCB      -0.154400
     15 C22        -21.5500   -11.7550     8.6140 ca         1 XCB       0.083200
     16 C23        -20.4930   -10.9570     8.1320 ca         1 XCB      -0.067000
     17 C24        -19.9170   -11.2060     6.8750 ca         1 XCB      -0.110000
     18 C25        -20.3890   -12.2580     6.0670 ca         1 XCB      -0.112300
     19 C26        -19.7370   -12.4980     4.7000 c3         1 XCB      -0.206100
     20 C28        -20.3680    -9.8770     3.7370 c3         1 XCB      -0.334100
     21 C31        -21.4410   -13.0690     6.5520 ca         1 XCB       0.148000
     22 C33        -22.0080   -12.8160     7.8110 ca         1 XCB      -0.113000
     23 C34        -22.2970   -12.6040    10.9120 ca         1 XCB      -0.081800
     24 C35        -22.1160   -13.9940    10.8070 ca         1 XCB      -0.066000
     25 C36        -22.3320   -14.7760    11.9590 ca         1 XCB      -0.159000
     26 C37        -22.7010   -14.1700    13.1800 ca         1 XCB      -0.099000
     27 N11        -30.9440   -14.5500    17.6830 n8         1 XCB      -0.998200
     28 N16        -22.6830   -10.6440    11.9240 na         1 XCB      -0.195700
     29 O03        -24.4320   -12.7000    15.1070 os         1 XCB      -0.454100
     30 O05        -25.7270   -11.5750    13.5870 o          1 XCB      -0.466000
     31 O19        -22.5580    -7.9780    10.7830 o          1 XCB      -0.699500
     32 O20        -22.2550    -8.7380     8.8060 o          1 XCB      -0.699500
     33 O29        -19.6760   -11.8430     2.1210 o          1 XCB      -0.526500
     34 O30        -21.9310   -11.9510     3.2690 o          1 XCB      -0.526500
     35 S27        -20.5020   -11.6140     3.3130 s6         1 XCB       1.066000
     36 Cl1        -22.0700   -14.4210     5.6090 cl         1 XCB      -0.225000
     37 H131       -25.6710   -14.2950    16.5240 ha         1 XCB       0.134000
     38 H102       -30.9690   -15.5090    15.8100 h1         1 XCB       0.033700
     39 H101       -29.9320   -16.2770    17.0340 h1         1 XCB       0.033700
     40 H013       -22.4230   -11.8070    16.6140 hc         1 XCB       0.045367
     41 H011       -22.0050   -13.3820    15.9030 hc         1 XCB       0.045367
     42 H012       -21.1830   -11.9080    15.3470 hc         1 XCB       0.045367
     43 H021       -23.3530   -11.0220    14.4760 h1         1 XCB       0.064700
     44 H071       -28.2450   -12.2020    13.7270 ha         1 XCB       0.134000
     45 H081       -30.1960   -13.4260    14.6250 ha         1 XCB       0.119500
     46 H121       -27.6270   -15.5060    17.4050 ha         1 XCB       0.119500
     47 H231       -20.0920   -10.1570     8.7480 ha         1 XCB       0.138000
     48 H241       -19.0970   -10.5790     6.5320 ha         1 XCB       0.097000
     49 H261       -19.7580   -13.5590     4.4320 h1         1 XCB       0.097200
     50 H262       -18.6910   -12.1740     4.7170 h1         1 XCB       0.097200
     51 H281       -20.9480    -9.7100     4.6510 h1         1 XCB       0.103700
     52 H282       -19.3080    -9.6510     3.8920 h1         1 XCB       0.103700
     53 H283       -20.7770    -9.3010     2.9010 h1         1 XCB       0.103700
     54 H331       -22.8340   -13.4340     8.1490 ha         1 XCB       0.133000
     55 H351       -21.8060   -14.4660     9.8810 ha         1 XCB       0.108000
     56 H361       -22.2070   -15.8550    11.9080 ha         1 XCB       0.095000
     57 H371       -22.8630   -14.7940    14.0560 ha         1 XCB       0.099000
     58 H112       -31.6870   -15.1360    18.0830 hn         1 XCB       0.395000
     59 H111       -30.2920   -14.4160    18.4650 hn         1 XCB       0.395000
     60 H161       -22.9320    -9.9700    12.6390 hn         1 XCB       0.370000
     61 C04        -25.6210   -12.3930    14.4930 c          1 XCB       0.605700
@<TRIPOS>BOND
     1     1     2 ar  
     2     1    23 ar  
     3     1    28 1   
     4     2     6 1   
     5     2    26 ar  
     6     3     7 ar  
     7     3    11 ar  
     8     3    37 1   
     9     4    10 1   
    10     4    27 1   
    11     4    38 1   
    12     4    39 1   
    13     5     6 1   
    14     5    40 1   
    15     5    41 1   
    16     5    42 1   
    17     6    29 1   
    18     6    43 1   
    19     7     8 ar  
    20     7    61 1   
    21     8     9 ar  
    22     8    44 1   
    23     9    10 ar  
    24     9    45 1   
    25    10    11 ar  
    26    11    46 1   
    27    12    13 1   
    28    12    14 2   
    29    12    28 1   
    30    13    31 1   
    31    13    32 1   
    32    14    15 1   
    33    14    23 1   
    34    15    16 ar  
    35    15    22 ar  
    36    16    17 ar  
    37    16    47 1   
    38    17    18 ar  
    39    17    48 1   
    40    18    19 1   
    41    18    21 ar  
    42    19    35 1   
    43    19    49 1   
    44    19    50 1   
    45    20    35 1   
    46    20    51 1   
    47    20    52 1   
    48    20    53 1   
    49    21    22 ar  
    50    21    36 1   
    51    22    54 1   
    52    23    24 ar  
    53    24    25 ar  
    54    24    55 1   
    55    25    26 ar  
    56    25    56 1   
    57    26    57 1   
    58    27    58 1   
    59    27    59 1   
    60    28    60 1   
    61    29    61 1   
    62    30    61 2   
    63    33    35 2   
    64    34    35 2   
@<TRIPOS>SUBSTRUCTURE
     1 XCB         1 TEMP              0 ****  ****    0 ROOT
