@<TRIPOS>MOLECULE
XCE
   55    58     1     0     0
SMALL
No Charge or Current Charge


@<TRIPOS>ATOM
      1 C1          16.4400    36.3540   -16.7350 cc         1 XCE       0.037000
      2 C10         19.4610    40.3180   -20.2780 c3         1 XCE       0.031700
      3 C11         20.0610    39.6550   -21.5570 c          1 XCE       0.597100
      4 C12         20.4630    41.2900   -19.6070 c3         1 XCE      -0.085400
      5 C13         19.8700    42.0850   -18.4200 c3         1 XCE      -0.032100
      6 C14         20.8770    43.0640   -17.8320 ca         1 XCE      -0.083300
      7 C17         21.7600    42.6490   -16.8160 ca         1 XCE      -0.106000
      8 C18         22.6940    43.5510   -16.2760 ca         1 XCE      -0.108500
      9 C19         22.7520    44.8720   -16.7510 ca         1 XCE      -0.109000
     10 C2          17.7580    36.4520   -16.3930 cd         1 XCE       0.042000
     11 C20         21.8750    45.2900   -17.7670 ca         1 XCE      -0.108500
     12 C21         20.9410    44.3890   -18.3060 ca         1 XCE      -0.106000
     13 C23         19.4460    35.3500   -23.5570 cc         1 XCE      -0.253100
     14 C24         20.0640    36.0520   -22.5420 cd         1 XCE       0.052400
     15 C26         19.4870    34.1730   -21.6110 cc         1 XCE       0.383500
     16 C28         20.6500    37.4450   -22.6260 c3         1 XCE       0.199900
     17 C29         22.1910    37.4230   -22.6100 c3         1 XCE      -0.105100
     18 C3          18.3840    37.3800   -17.2490 cd         1 XCE      -0.125000
     19 C31         18.6400    32.1160   -21.2900 cd         1 XCE       0.363900
     20 C32         18.2160    32.0860   -22.6730 cd         1 XCE      -0.212000
     21 C33         18.4420    33.1440   -23.5470 cc         1 XCE      -0.063000
     22 C4          17.4470    37.8680   -18.1380 cc         1 XCE      -0.235600
     23 C8          17.6830    38.8570   -19.2130 c          1 XCE       0.631700
     24 N15         20.1250    38.2790   -21.5470 ns         1 XCE      -0.483900
     25 N22         18.9810    39.3060   -19.3010 ns         1 XCE      -0.509900
     26 N25         20.0820    35.3220   -21.3500 nd         1 XCE      -0.253600
     27 N27         19.1130    34.1890   -22.9240 na         1 XCE      -0.070400
     28 N30         19.2760    33.1460   -20.7320 nc         1 XCE      -0.611000
     29 N5          16.2440    37.2230   -17.8060 na         1 XCE      -0.051000
     30 O16         20.4450    40.3080   -22.5180 o          1 XCE      -0.607100
     31 O9          16.8070    39.2360   -19.9750 o          1 XCE      -0.581100
     32 Cl6         15.2130    35.3590   -16.0120 cl         1 XCE      -0.114000
     33 Cl7         18.5930    35.6060   -15.1300 cl         1 XCE      -0.150000
     34 H36         18.6000    40.9040   -20.6270 h1         1 XCE       0.100700
     35 H37         21.3420    40.7290   -19.2660 hc         1 XCE       0.063200
     36 H38         20.8210    42.0060   -20.3580 hc         1 XCE       0.063200
     37 H40         18.9750    42.6220   -18.7580 hc         1 XCE       0.050700
     38 H39         19.5320    41.3900   -17.6420 hc         1 XCE       0.050700
     39 H42         21.7230    41.6270   -16.4440 ha         1 XCE       0.110000
     40 H43         23.3730    43.2250   -15.4910 ha         1 XCE       0.112500
     41 H44         23.4750    45.5700   -16.3340 ha         1 XCE       0.113000
     42 H45         21.9200    46.3130   -18.1360 ha         1 XCE       0.112500
     43 H46         20.2680    44.7200   -19.0940 ha         1 XCE       0.110000
     44 H50         20.3260    37.8830   -23.5800 h1         1 XCE       0.067700
     45 H51         22.5960    38.4340   -22.7320 hc         1 XCE       0.048367
     46 H53         22.5650    37.0120   -21.6650 hc         1 XCE       0.048367
     47 H52         22.5710    36.8030   -23.4300 hc         1 XCE       0.048367
     48 H34         19.4340    37.6490   -17.1990 ha         1 XCE       0.142000
     49 H54         18.4600    31.2880   -20.6170 h4         1 XCE       0.031100
     50 H55         17.7020    31.2030   -23.0350 ha         1 XCE       0.139000
     51 H56         18.1650    33.2180   -24.5920 h4         1 XCE       0.147000
     52 H41         19.7700    37.8180   -20.7200 hn         1 XCE       0.323500
     53 H47         19.6250    38.9620   -18.6000 hn         1 XCE       0.321500
     54 H35         15.3550    37.3640   -18.2770 hn         1 XCE       0.387000
     55 H48         19.2370    35.5800   -24.5970 h4         1 XCE       0.235000
@<TRIPOS>BOND
     1     1    10 2   
     2     1    29 1   
     3     1    32 1   
     4     2     3 1   
     5     2     4 1   
     6     2    25 1   
     7     2    34 1   
     8     3    24 1   
     9     3    30 2   
    10     4     5 1   
    11     4    35 1   
    12     4    36 1   
    13     5     6 1   
    14     5    37 1   
    15     5    38 1   
    16     6     7 ar  
    17     6    12 ar  
    18     7     8 ar  
    19     7    39 1   
    20     8     9 ar  
    21     8    40 1   
    22     9    11 ar  
    23     9    41 1   
    24    10    18 1   
    25    10    33 1   
    26    11    12 ar  
    27    11    42 1   
    28    12    43 1   
    29    13    14 2   
    30    13    27 1   
    31    13    55 1   
    32    14    16 1   
    33    14    26 1   
    34    15    26 2   
    35    15    27 1   
    36    15    28 1   
    37    16    17 1   
    38    16    24 1   
    39    16    44 1   
    40    17    45 1   
    41    17    46 1   
    42    17    47 1   
    43    18    22 2   
    44    18    48 1   
    45    19    20 1   
    46    19    28 2   
    47    19    49 1   
    48    20    21 2   
    49    20    50 1   
    50    21    27 1   
    51    21    51 1   
    52    22    23 1   
    53    22    29 1   
    54    23    25 1   
    55    23    31 2   
    56    24    52 1   
    57    25    53 1   
    58    29    54 1   
@<TRIPOS>SUBSTRUCTURE
     1 XCE         1 TEMP              0 ****  ****    0 ROOT
