@<TRIPOS>MOLECULE
XCE
   55    58     1     0     0
SMALL
abcg2


@<TRIPOS>ATOM
      1 C1          17.7180    36.2320   -15.1860 cc         1 XCE       0.037000
      2 C10         19.5940    39.5160   -19.7960 c3         1 XCE       0.031700
      3 C11         20.2150    38.6850   -20.9210 c          1 XCE       0.597100
      4 C12         20.3410    40.8400   -19.6400 c3         1 XCE      -0.085400
      5 C13         19.5850    41.8410   -18.7650 c3         1 XCE      -0.032100
      6 C14         20.3630    43.1150   -18.5930 ca         1 XCE      -0.083300
      7 C17         21.2170    43.2850   -17.5060 ca         1 XCE      -0.106000
      8 C18         21.9680    44.4430   -17.3620 ca         1 XCE      -0.108500
      9 C19         21.8770    45.4550   -18.3100 ca         1 XCE      -0.109000
     10 C2          18.7490    36.9860   -14.6720 cd         1 XCE       0.042000
     11 C20         21.0300    45.2960   -19.4000 ca         1 XCE      -0.108500
     12 C21         20.2820    44.1350   -19.5380 ca         1 XCE      -0.106000
     13 C23         20.2090    35.8270   -23.6700 cc         1 XCE      -0.253100
     14 C24         20.2690    35.9790   -22.3110 cd         1 XCE       0.052400
     15 C26         18.4440    34.9430   -22.6580 cc         1 XCE       0.383500
     16 C28         21.3760    36.6160   -21.5240 c3         1 XCE       0.199900
     17 C29         22.1930    35.5640   -20.7830 c3         1 XCE      -0.105100
     18 C3          19.2600    37.7720   -15.7180 cd         1 XCE      -0.125000
     19 C31         16.6950    33.9060   -23.6430 cd         1 XCE       0.363900
     20 C32         17.2440    34.0990   -24.9330 cd         1 XCE      -0.212000
     21 C33         18.4370    34.7390   -25.0410 cc         1 XCE      -0.063000
     22 C4          18.5170    37.4690   -16.8400 cc         1 XCE      -0.235600
     23 C8          18.5390    37.9650   -18.2220 c          1 XCE       0.631700
     24 N15         20.8470    37.5630   -20.5620 ns         1 XCE      -0.483900
     25 N22         19.5260    38.8340   -18.5250 ns         1 XCE      -0.509900
     26 N25         19.1890    35.4350   -21.6960 nd         1 XCE      -0.253600
     27 N27         19.0370    35.1580   -23.9010 na         1 XCE      -0.070400
     28 N30         17.2700    34.3120   -22.5420 nc         1 XCE      -0.611000
     29 N5          17.5890    36.5330   -16.4910 na         1 XCE      -0.051000
     30 O16         20.1300    39.0720   -22.0770 o          1 XCE      -0.607100
     31 O9          17.7010    37.5970   -19.0330 o          1 XCE      -0.581100
     32 CL6         16.7310    35.1040   -14.3970 cl         1 XCE      -0.114000
     33 CL7         19.2820    36.9530   -13.0500 cl         1 XCE      -0.150000
     34 H36         18.5740    39.7330   -20.1290 h1         1 XCE       0.100700
     35 H37         21.3370    40.6530   -19.2260 hc         1 XCE       0.063200
     36 H38         20.4920    41.2710   -20.6310 hc         1 XCE       0.063200
     37 H40         18.6170    42.0520   -19.2280 hc         1 XCE       0.050700
     38 H39         19.3770    41.4050   -17.7860 hc         1 XCE       0.050700
     39 H42         21.2930    42.5020   -16.7590 ha         1 XCE       0.110000
     40 H43         22.6240    44.5580   -16.5080 ha         1 XCE       0.112500
     41 H44         22.4590    46.3600   -18.1990 ha         1 XCE       0.113000
     42 H45         20.9490    46.0800   -20.1420 ha         1 XCE       0.112500
     43 H46         19.6210    44.0220   -20.3900 ha         1 XCE       0.110000
     44 H50         22.0320    37.1450   -22.2200 h1         1 XCE       0.067700
     45 H51         23.0120    36.0290   -20.2330 hc         1 XCE       0.048367
     46 H53         21.5700    35.0120   -20.0790 hc         1 XCE       0.048367
     47 H52         22.6200    34.8530   -21.4890 hc         1 XCE       0.048367
     48 H34         20.0700    38.4800   -15.6360 ha         1 XCE       0.142000
     49 H54         15.7450    33.3960   -23.5410 h4         1 XCE       0.031100
     50 H55         16.7300    33.7460   -25.8130 ha         1 XCE       0.139000
     51 H56         18.9440    34.9390   -25.9740 h4         1 XCE       0.147000
     52 H41         20.8470    37.2980   -19.5890 hn         1 XCE       0.323500
     53 H47         20.2010    39.0830   -17.8180 hn         1 XCE       0.321500
     54 H35         16.9100    36.1340   -17.1240 hn         1 XCE       0.387000
     55 H48         20.8680    36.1340   -24.4650 h4         1 XCE       0.235000
@<TRIPOS>BOND
     1     1    10 2   
     2     1    29 1   
     3     1    32 1   
     4     2     3 1   
     5     2     4 1   
     6     2    25 1   
     7     2    34 1   
     8     3    24 1   
     9     3    30 2   
    10     4     5 1   
    11     4    35 1   
    12     4    36 1   
    13     5     6 1   
    14     5    37 1   
    15     5    38 1   
    16     6     7 ar  
    17     6    12 ar  
    18     7     8 ar  
    19     7    39 1   
    20     8     9 ar  
    21     8    40 1   
    22     9    11 ar  
    23     9    41 1   
    24    10    18 1   
    25    10    33 1   
    26    11    12 ar  
    27    11    42 1   
    28    12    43 1   
    29    13    14 2   
    30    13    27 1   
    31    13    55 1   
    32    14    16 1   
    33    14    26 1   
    34    15    26 2   
    35    15    27 1   
    36    15    28 1   
    37    16    17 1   
    38    16    24 1   
    39    16    44 1   
    40    17    45 1   
    41    17    46 1   
    42    17    47 1   
    43    18    22 2   
    44    18    48 1   
    45    19    20 1   
    46    19    28 2   
    47    19    49 1   
    48    20    21 2   
    49    20    50 1   
    50    21    27 1   
    51    21    51 1   
    52    22    23 1   
    53    22    29 1   
    54    23    25 1   
    55    23    31 2   
    56    24    52 1   
    57    25    53 1   
    58    29    54 1   
@<TRIPOS>SUBSTRUCTURE
     1 XCE         1 TEMP              0 ****  ****    0 ROOT
