@<TRIPOS>MOLECULE
XCF
   48    51     1     0     0
SMALL
No Charge or Current Charge


@<TRIPOS>ATOM
      1 N4           5.7150    -2.0010    -1.4390 nv         1 XCF      -1.052900
      2 C3           4.7370    -1.5190    -0.6390 ca         1 XCF       0.405900
      3 N5           4.3390    -0.2700    -0.8920 nb         1 XCF      -0.332000
      4 N2           4.2830    -2.3480     0.3090 nb         1 XCF      -0.277000
      5 C1           3.3080    -1.8620     1.0990 ca         1 XCF       0.167900
      6 C8           2.7910    -0.5620     0.9290 ca         1 XCF      -0.310300
      7 C6           3.3700     0.2000    -0.1010 ca         1 XCF       0.426900
      8 N7           2.9920     1.4690    -0.3730 nv         1 XCF      -1.065900
      9 C9           1.6920    -0.0440     1.8660 c3         1 XCF       0.040200
     10 C10          0.4720     0.5460     1.1450 ca         1 XCF      -0.002300
     11 C11         -0.4630    -0.2580     0.4530 ca         1 XCF      -0.149800
     12 C27         -0.3230    -1.7380     0.3590 ce         1 XCF      -0.123200
     13 C28         -1.3420    -2.4860    -0.1000 c2         1 XCF      -0.262200
     14 C14         -2.6580    -1.8450    -0.4840 c6         1 XCF       0.238500
     15 C24         -3.6680    -1.8630     0.6740 cx         1 XCF      -0.160700
     16 C25         -4.6010    -3.0390     0.8580 cx         1 XCF      -0.121900
     17 C26         -5.1470    -1.7050     0.4010 cx         1 XCF      -0.121900
     18 O13         -2.4450    -0.4810    -0.9020 os         1 XCF      -0.322100
     19 C12         -1.5750     0.3370    -0.1970 ca         1 XCF       0.164100
     20 C15         -1.7550     1.7520    -0.1680 ca         1 XCF       0.027100
     21 O16         -2.8120     2.4310    -0.7780 os         1 XCF      -0.326100
     22 C17         -3.9290     1.7990    -1.4290 c3         1 XCF       0.146900
     23 C18         -0.8190     2.5420     0.5370 ca         1 XCF       0.160100
     24 C21          0.2770     1.9390     1.1870 ca         1 XCF      -0.250000
     25 O19         -1.0120     3.9140     0.5690 os         1 XCF      -0.320100
     26 C20         -0.1250     4.8090     1.2650 c3         1 XCF       0.143900
     27 HN4          5.9270    -1.4970    -2.2960 hn         1 XCF       0.487000
     28 HN4A         5.8930    -3.0030    -1.4390 hn         1 XCF       0.487000
     29 H1           2.9350    -2.5270     1.8770 h4         1 XCF       0.011100
     30 HN7          3.2880     1.8630    -1.2610 hn         1 XCF       0.491000
     31 HN7A         2.0820     1.7610    -0.0300 hn         1 XCF       0.491000
     32 H9           1.3540    -0.8460     2.5340 hc         1 XCF       0.053200
     33 H9A          2.1290     0.7050     2.5390 hc         1 XCF       0.053200
     34 H27          0.6180    -2.1960     0.6600 ha         1 XCF       0.192000
     35 H28         -1.2720    -3.5710    -0.1860 ha         1 XCF       0.191000
     36 H14         -3.0970    -2.3920    -1.3330 h1         1 XCF       0.084700
     37 H24         -3.2830    -1.3980     1.5780 hc         1 XCF       0.087700
     38 H25         -4.5610    -3.8460     0.1290 hc         1 XCF       0.073450
     39 H25A        -4.8220    -3.3560     1.8740 hc         1 XCF       0.073450
     40 H26         -5.7330    -1.1250     1.1100 hc         1 XCF       0.073450
     41 H26A        -5.4700    -1.6160    -0.6340 hc         1 XCF       0.073450
     42 H17         -3.6020     1.2340    -2.3110 h1         1 XCF       0.034367
     43 H17A        -4.4540     1.1260    -0.7400 h1         1 XCF       0.034367
     44 H17B        -4.6440     2.5580    -1.7680 h1         1 XCF       0.034367
     45 H21          0.9900     2.5450     1.7390 ha         1 XCF       0.121000
     46 H20         -0.0920     4.5710     2.3360 h1         1 XCF       0.042700
     47 H20A         0.8910     4.7470     0.8560 h1         1 XCF       0.042700
     48 H20B        -0.4720     5.8440     1.1580 h1         1 XCF       0.042700
@<TRIPOS>BOND
     1     1     2 1   
     2     1    27 1   
     3     1    28 1   
     4     2     3 ar  
     5     2     4 ar  
     6     3     7 ar  
     7     4     5 ar  
     8     5     6 ar  
     9     5    29 1   
    10     6     7 ar  
    11     6     9 1   
    12     7     8 1   
    13     8    30 1   
    14     8    31 1   
    15     9    10 1   
    16     9    32 1   
    17     9    33 1   
    18    10    11 ar  
    19    10    24 ar  
    20    11    12 1   
    21    11    19 ar  
    22    12    13 2   
    23    12    34 1   
    24    13    14 1   
    25    13    35 1   
    26    14    15 1   
    27    14    18 1   
    28    14    36 1   
    29    15    16 1   
    30    15    17 1   
    31    15    37 1   
    32    16    17 1   
    33    16    38 1   
    34    16    39 1   
    35    17    40 1   
    36    17    41 1   
    37    18    19 1   
    38    19    20 ar  
    39    20    21 1   
    40    20    23 ar  
    41    21    22 1   
    42    22    42 1   
    43    22    43 1   
    44    22    44 1   
    45    23    24 ar  
    46    23    25 1   
    47    24    45 1   
    48    25    26 1   
    49    26    46 1   
    50    26    47 1   
    51    26    48 1   
@<TRIPOS>SUBSTRUCTURE
     1 XCF         1 TEMP              0 ****  ****    0 ROOT
