@<TRIPOS>MOLECULE
XCF
   48    51     1     0     0
SMALL
abcg2


@<TRIPOS>ATOM
      1 N4           5.7660    -2.2340    -1.1620 nv         1 XCF      -1.052900
      2 C3           4.7390    -1.6800    -0.4740 ca         1 XCF       0.405900
      3 N5           4.3890    -0.4400    -0.8120 nb         1 XCF      -0.332000
      4 N2           4.1930    -2.4080     0.5000 nb         1 XCF      -0.277000
      5 C1           3.2120    -1.8090     1.1690 ca         1 XCF       0.167900
      6 C8           2.7430    -0.5380     0.9260 ca         1 XCF      -0.310300
      7 C6           3.4100     0.1410    -0.1230 ca         1 XCF       0.426900
      8 N7           3.1190     1.4150    -0.4490 nv         1 XCF      -1.065900
      9 C9           1.6590     0.0760     1.7710 c3         1 XCF       0.040200
     10 C10          0.4430     0.5790     1.0240 ca         1 XCF      -0.002300
     11 C11         -0.4030    -0.2750     0.3150 ca         1 XCF      -0.149800
     12 C27         -0.2430    -1.7200     0.2250 ce         1 XCF      -0.123200
     13 C28         -1.2240    -2.4730    -0.2710 c2         1 XCF      -0.262200
     14 C14         -2.5130    -1.8440    -0.6980 c6         1 XCF       0.238500
     15 C24         -3.5450    -1.9070     0.3970 cx         1 XCF      -0.160700
     16 C25         -4.4530    -3.0980     0.4590 cx         1 XCF      -0.121900
     17 C26         -4.9940    -1.7630     0.0510 cx         1 XCF      -0.121900
     18 O13         -2.3030    -0.4960    -1.1260 os         1 XCF      -0.322100
     19 C12         -1.4950     0.2760    -0.3740 ca         1 XCF       0.164100
     20 C15         -1.7510     1.6400    -0.3650 ca         1 XCF       0.027100
     21 O16         -2.7960     2.1520    -1.0660 os         1 XCF      -0.326100
     22 C17         -4.0240     2.1670    -0.3500 c3         1 XCF       0.146900
     23 C18         -0.9140     2.4850     0.3720 ca         1 XCF       0.160100
     24 C21          0.1720     1.9470     1.0580 ca         1 XCF      -0.250000
     25 O19         -1.2380     3.7860     0.3580 os         1 XCF      -0.320100
     26 C20         -0.4350     4.6880     1.0950 c3         1 XCF       0.143900
     27 HN4          6.0280    -1.8140    -2.0370 hn         1 XCF       0.487000
     28 HN4A         5.8910    -3.2290    -1.0940 hn         1 XCF       0.487000
     29 H1           2.7610    -2.3920     1.9690 h4         1 XCF       0.011100
     30 HN7          3.5340     1.7910    -1.2840 hn         1 XCF       0.491000
     31 HN7A         2.2500     1.8320    -0.1620 hn         1 XCF       0.491000
     32 H9           1.3530    -0.6630     2.5170 hc         1 XCF       0.053200
     33 H9A          2.0720     0.9130     2.3420 hc         1 XCF       0.053200
     34 H27          0.6750    -2.1770     0.5640 ha         1 XCF       0.192000
     35 H28         -1.1360    -3.5500    -0.3370 ha         1 XCF       0.191000
     36 H14         -2.9050    -2.3530    -1.5840 h1         1 XCF       0.084700
     37 H24         -3.2240    -1.4940     1.3490 hc         1 XCF       0.087700
     38 H25         -4.3430    -3.8560    -0.3070 hc         1 XCF       0.073450
     39 H25A        -4.7130    -3.4870     1.4350 hc         1 XCF       0.073450
     40 H26         -5.6300    -1.2300     0.7450 hc         1 XCF       0.073450
     41 H26A        -5.2530    -1.6140    -0.9910 hc         1 XCF       0.073450
     42 H17         -4.3360     1.1610    -0.0580 h1         1 XCF       0.034367
     43 H17A        -3.9620     2.7910     0.5450 h1         1 XCF       0.034367
     44 H17B        -4.7770     2.5860    -1.0160 h1         1 XCF       0.034367
     45 H21          0.8210     2.5850     1.6440 ha         1 XCF       0.121000
     46 H20         -0.4240     4.4460     2.1610 h1         1 XCF       0.042700
     47 H20A         0.5930     4.7120     0.7270 h1         1 XCF       0.042700
     48 H20B        -0.8780     5.6720     0.9630 h1         1 XCF       0.042700
@<TRIPOS>BOND
     1     1     2 1   
     2     1    27 1   
     3     1    28 1   
     4     2     3 ar  
     5     2     4 ar  
     6     3     7 ar  
     7     4     5 ar  
     8     5     6 ar  
     9     5    29 1   
    10     6     7 ar  
    11     6     9 1   
    12     7     8 1   
    13     8    30 1   
    14     8    31 1   
    15     9    10 1   
    16     9    32 1   
    17     9    33 1   
    18    10    11 ar  
    19    10    24 ar  
    20    11    12 1   
    21    11    19 ar  
    22    12    13 2   
    23    12    34 1   
    24    13    14 1   
    25    13    35 1   
    26    14    15 1   
    27    14    18 1   
    28    14    36 1   
    29    15    16 1   
    30    15    17 1   
    31    15    37 1   
    32    16    17 1   
    33    16    38 1   
    34    16    39 1   
    35    17    40 1   
    36    17    41 1   
    37    18    19 1   
    38    19    20 ar  
    39    20    21 1   
    40    20    23 ar  
    41    21    22 1   
    42    22    42 1   
    43    22    43 1   
    44    22    44 1   
    45    23    24 ar  
    46    23    25 1   
    47    24    45 1   
    48    25    26 1   
    49    26    46 1   
    50    26    47 1   
    51    26    48 1   
@<TRIPOS>SUBSTRUCTURE
     1 XCF         1 TEMP              0 ****  ****    0 ROOT
