@<TRIPOS>MOLECULE
XCG
   22    24     1     0     0
SMALL
bcc


@<TRIPOS>ATOM
      1 CAE         -0.2530    -1.3530     0.0020 cc         1 XCG      -0.129200
      2 CAM         -1.5940    -0.8490     0.0030 ca         1 XCG      -0.114800
      3 CAC         -2.8700    -1.4170     0.0030 ca         1 XCG      -0.073000
      4 CAA         -3.9630    -0.5690     0.0040 ca         1 XCG      -0.149000
      5 CAB         -3.8060     0.8230     0.0060 ca         1 XCG      -0.106000
      6 CAD         -2.5500     1.4090     0.0070 ca         1 XCG      -0.126000
      7 CAN         -1.4720     0.5430     0.0060 ca         1 XCG       0.066100
      8 OAJ         -0.1640     0.8930     0.0060 os         1 XCG      -0.192200
      9 CAL          0.5510    -0.2640     0.0030 cd         1 XCG      -0.022700
     10 CAK          1.9860    -0.1390     0.0020 cd         1 XCG       0.467300
     11 NAH          2.6390     1.0450     0.0160 na         1 XCG      -0.277900
     12 CAF          3.9730     0.7780     0.0110 cd         1 XCG      -0.255600
     13 CAG          4.0680    -0.5880    -0.0080 cc         1 XCG       0.299200
     14 NAI          2.8280    -1.1470    -0.0140 nc         1 XCG      -0.654000
     15 HAE          0.0680    -2.3820    -0.0010 ha         1 XCG       0.180000
     16 HAC         -3.0000    -2.4910     0.0010 ha         1 XCG       0.140000
     17 HAA         -4.9620    -0.9860     0.0030 ha         1 XCG       0.134000
     18 HAB         -4.6830     1.4570     0.0060 ha         1 XCG       0.134000
     19 HAD         -2.4220     2.4830     0.0080 ha         1 XCG       0.147000
     20 HAH          2.2260     1.9650     0.0400 hn         1 XCG       0.313700
     21 HAF          4.7160     1.5560     0.0210 h4         1 XCG       0.178000
     22 HAG          4.9640    -1.1880    -0.0190 h4         1 XCG       0.041100
@<TRIPOS>BOND
     1     1     2 1   
     2     1     9 2   
     3     1    15 1   
     4     2     3 ar  
     5     2     7 ar  
     6     3     4 ar  
     7     3    16 1   
     8     4     5 ar  
     9     4    17 1   
    10     5     6 ar  
    11     5    18 1   
    12     6     7 ar  
    13     6    19 1   
    14     7     8 1   
    15     8     9 1   
    16     9    10 1   
    17    10    11 1   
    18    10    14 2   
    19    11    12 1   
    20    11    20 1   
    21    12    13 2   
    22    12    21 1   
    23    13    14 1   
    24    13    22 1   
@<TRIPOS>SUBSTRUCTURE
     1 XCG         1 TEMP              0 ****  ****    0 ROOT
