@<TRIPOS>MOLECULE
XCG
   22    24     1     0     0
SMALL
No Charge or Current Charge


@<TRIPOS>ATOM
      1 CAE         -0.2270    -1.2550    -0.0020 cc         1 XCG      -0.179200
      2 CAM         -1.5860    -0.7470     0.0010 ca         1 XCG      -0.114800
      3 CAC         -2.8150    -1.4190    -0.0030 ca         1 XCG      -0.055000
      4 CAA         -3.9920    -0.6360     0.0020 ca         1 XCG      -0.131000
      5 CAB         -3.9200     0.7810     0.0100 ca         1 XCG      -0.088000
      6 CAD         -2.6680     1.4340     0.0130 ca         1 XCG      -0.108000
      7 CAN         -1.5230     0.6310     0.0090 ca         1 XCG       0.066100
      8 OAJ         -0.2190     1.0260     0.0110 os         1 XCG      -0.192200
      9 CAL          0.5560    -0.1090     0.0040 cd         1 XCG      -0.022700
     10 CAK          1.9980    -0.0980     0.0040 cd         1 XCG       0.467300
     11 NAH          2.7330     1.0680     0.0100 na         1 XCG      -0.277500
     12 CAF          4.0720     0.7010     0.0080 cd         1 XCG      -0.223000
     13 CAG          4.0650    -0.6690     0.0010 cc         1 XCG       0.233900
     14 NAI          2.7890    -1.1620    -0.0020 nc         1 XCG      -0.654000
     15 HAE          0.1210    -2.2860    -0.0080 ha         1 XCG       0.230000
     16 HAC         -2.8620    -2.5060    -0.0090 ha         1 XCG       0.122000
     17 HAA         -4.9630    -1.1260    -0.0010 ha         1 XCG       0.116000
     18 HAB         -4.8360     1.3690     0.0130 ha         1 XCG       0.116000
     19 HAD         -2.5930     2.5190     0.0190 ha         1 XCG       0.129000
     20 HAH          2.3420     2.0020     0.0160 hn         1 XCG       0.364000
     21 HAF          4.8970     1.4060     0.0120 h4         1 XCG       0.160000
     22 HAG          4.9120    -1.3440    -0.0030 h4         1 XCG       0.041100
@<TRIPOS>BOND
     1     1     2 1   
     2     1     9 2   
     3     1    15 1   
     4     2     3 ar  
     5     2     7 ar  
     6     3     4 ar  
     7     3    16 1   
     8     4     5 ar  
     9     4    17 1   
    10     5     6 ar  
    11     5    18 1   
    12     6     7 ar  
    13     6    19 1   
    14     7     8 1   
    15     8     9 1   
    16     9    10 1   
    17    10    11 1   
    18    10    14 2   
    19    11    12 1   
    20    11    20 1   
    21    12    13 2   
    22    12    21 1   
    23    13    14 1   
    24    13    22 1   
@<TRIPOS>SUBSTRUCTURE
     1 XCG         1 TEMP              0 ****  ****    0 ROOT
