@<TRIPOS>MOLECULE
XCH
   30    30     1     0     0
SMALL
abcg2


@<TRIPOS>ATOM
      1 CL1         -5.7610     0.6470    -0.1960 cl         1 XCH      -0.207000
      2 C8          -4.0570     0.3230    -0.1000 ca         1 XCH       0.086000
      3 C9          -3.6090    -0.9890    -0.1800 ca         1 XCH      -0.071000
      4 C10         -2.2560    -1.2830    -0.1080 ca         1 XCH      -0.096300
      5 C11         -1.7690    -2.6980    -0.1960 c3         1 XCH      -0.036800
      6 C5          -1.3470    -0.2240     0.0490 ca         1 XCH       0.146100
      7 C6          -1.8040     1.0870     0.1250 ca         1 XCH      -0.193000
      8 C7          -3.1650     1.3640     0.0510 ca         1 XCH      -0.068000
      9 O3          -0.0500    -0.5740     0.1150 os         1 XCH      -0.343100
     10 C4           0.9400     0.4390     0.1850 c3         1 XCH       0.163600
     11 C3           2.2960    -0.2360     0.2070 c3         1 XCH      -0.072400
     12 C2           3.4060     0.8060     0.2500 c3         1 XCH      -0.160400
     13 C1           4.7760     0.1760     0.3550 c          1 XCH       0.602100
     14 O1           5.0210    -0.7750     1.0750 o          1 XCH      -0.563100
     15 N1           5.6950     0.7630    -0.4360 ns         1 XCH      -0.388400
     16 O2           7.0140     0.4550    -0.2900 oh         1 XCH      -0.424100
     17 H1          -4.3200    -1.7970    -0.3000 ha         1 XCH       0.130000
     18 H2          -1.0600    -2.8290    -1.0150 hc         1 XCH       0.046033
     19 H3          -1.2590    -3.0050     0.7190 hc         1 XCH       0.046033
     20 H4          -2.5990    -3.3830    -0.3600 hc         1 XCH       0.046033
     21 H5          -1.1220     1.9170     0.2430 ha         1 XCH       0.119000
     22 H6          -3.5080     2.3880     0.1130 ha         1 XCH       0.128000
     23 H7           0.8580     1.1100    -0.6780 h1         1 XCH       0.033700
     24 H8           0.8080     1.0450     1.0890 h1         1 XCH       0.033700
     25 H9           2.3650    -0.8900     1.0780 hc         1 XCH       0.072700
     26 H10          2.4070    -0.8620    -0.6820 hc         1 XCH       0.072700
     27 H11          3.3430     1.4620    -0.6220 hc         1 XCH       0.060200
     28 H12          3.2810     1.4500     1.1260 hc         1 XCH       0.060200
     29 H13          5.5160     1.6360    -0.9100 hn         1 XCH       0.332500
     30 H14          7.2190    -0.1830    -0.9850 ho         1 XCH       0.447000
@<TRIPOS>BOND
     1     1     2 1   
     2     2     3 ar  
     3     2     8 ar  
     4     3     4 ar  
     5     3    17 1   
     6     4     5 1   
     7     4     6 ar  
     8     5    18 1   
     9     5    19 1   
    10     5    20 1   
    11     6     7 ar  
    12     6     9 1   
    13     7     8 ar  
    14     7    21 1   
    15     8    22 1   
    16     9    10 1   
    17    10    11 1   
    18    10    23 1   
    19    10    24 1   
    20    11    12 1   
    21    11    25 1   
    22    11    26 1   
    23    12    13 1   
    24    12    27 1   
    25    12    28 1   
    26    13    14 2   
    27    13    15 1   
    28    15    16 1   
    29    15    29 1   
    30    16    30 1   
@<TRIPOS>SUBSTRUCTURE
     1 XCH         1 TEMP              0 ****  ****    0 ROOT
