@<TRIPOS>MOLECULE
XCH
   30    30     1     0     0
SMALL
No Charge or Current Charge


@<TRIPOS>ATOM
      1 Cl1         -5.8890     0.5170    -0.2570 cl         1 XCH      -0.207000
      2 C8          -4.1550     0.2440    -0.1530 ca         1 XCH       0.086000
      3 C9          -3.6450    -1.0610    -0.2450 ca         1 XCH      -0.071000
      4 C10         -2.2560    -1.2900    -0.1630 ca         1 XCH      -0.096300
      5 C11         -1.7150    -2.7120    -0.2650 c3         1 XCH      -0.036800
      6 C5          -1.3760    -0.1970     0.0130 ca         1 XCH       0.146100
      7 C6          -1.8970     1.1140     0.1050 ca         1 XCH      -0.193000
      8 C7          -3.2840     1.3300     0.0220 ca         1 XCH      -0.068000
      9 O3          -0.0200    -0.4510     0.0900 os         1 XCH      -0.343100
     10 C4           0.9510     0.5930     0.2690 c3         1 XCH       0.163600
     11 C3           2.3420    -0.0690     0.3080 c3         1 XCH      -0.072400
     12 C2           3.4940     0.9490     0.4950 c3         1 XCH      -0.160400
     13 C1           4.8620     0.2550     0.5380 c          1 XCH       0.602100
     14 O1           5.2340    -0.3960     1.5060 o          1 XCH      -0.563100
     15 N1           5.6530     0.4400    -0.5900 ns         1 XCH      -0.388400
     16 O2           7.0580     0.0830    -0.5840 oh         1 XCH      -0.424100
     17 H1          -4.3310    -1.8930    -0.3810 ha         1 XCH       0.130000
     18 H2          -1.0300    -2.8110    -1.1160 hc         1 XCH       0.046033
     19 H3          -1.1640    -2.9880     0.6420 hc         1 XCH       0.046033
     20 H4          -2.5170    -3.4470    -0.4000 hc         1 XCH       0.046033
     21 H5          -1.2470     1.9730     0.2410 ha         1 XCH       0.119000
     22 H6          -3.6850     2.3390     0.0930 ha         1 XCH       0.128000
     23 H7           0.9080     1.3090    -0.5630 h1         1 XCH       0.033700
     24 H8           0.7740     1.1310     1.2090 h1         1 XCH       0.033700
     25 H9           2.3640    -0.8000     1.1260 hc         1 XCH       0.072700
     26 H10          2.4970    -0.6270    -0.6250 hc         1 XCH       0.072700
     27 H11          3.4630     1.6670    -0.3340 hc         1 XCH       0.060200
     28 H12          3.3410     1.4750     1.4450 hc         1 XCH       0.060200
     29 H13          5.3630     1.1130    -1.2980 hn         1 XCH       0.332500
     30 H14          7.1660    -0.4510    -1.4060 ho         1 XCH       0.447000
@<TRIPOS>BOND
     1     1     2 1   
     2     2     3 ar  
     3     2     8 ar  
     4     3     4 ar  
     5     3    17 1   
     6     4     5 1   
     7     4     6 ar  
     8     5    18 1   
     9     5    19 1   
    10     5    20 1   
    11     6     7 ar  
    12     6     9 1   
    13     7     8 ar  
    14     7    21 1   
    15     8    22 1   
    16     9    10 1   
    17    10    11 1   
    18    10    23 1   
    19    10    24 1   
    20    11    12 1   
    21    11    25 1   
    22    11    26 1   
    23    12    13 1   
    24    12    27 1   
    25    12    28 1   
    26    13    14 2   
    27    13    15 1   
    28    15    16 1   
    29    15    29 1   
    30    16    30 1   
@<TRIPOS>SUBSTRUCTURE
     1 XCH         1 TEMP              0 ****  ****    0 ROOT
