@<TRIPOS>MOLECULE
XCI
   35    36     1     0     0
SMALL
abcg2


@<TRIPOS>ATOM
      1 SE1          2.2570    -0.7450    -0.5350 ss         1 XCI      -0.365800
      2 C1          -1.7420     1.2800    -0.7880 c5         1 XCI       0.352700
      3 C2          -2.7600     0.0240     1.0600 c          1 XCI       0.625000
      4 C8          -1.5900     2.6380    -0.0930 c5         1 XCI      -0.151400
      5 C3          -0.2060     2.5930     0.5600 c5         1 XCI       0.137300
      6 C4          -4.7640    -1.3640     0.6280 c          1 XCI       0.588200
      7 C9           0.5040     1.5040    -0.2500 c5         1 XCI       0.178300
      8 C5          -4.7190    -0.9330    -0.7540 cc         1 XCI      -0.260400
      9 C10          1.5180     0.7230     0.5530 c3         1 XCI       0.152600
     10 C6          -3.7380    -0.0890    -1.1170 cd         1 XCI      -0.002400
     11 N1          -2.7830     0.4000    -0.2640 n          1 XCI      -0.317000
     12 N3          -3.7620    -0.8370     1.4220 ns         1 XCI      -0.467500
     13 O2          -1.9320     0.4170     1.8550 o          1 XCI      -0.566000
     14 O3           0.5330     3.7820     0.4590 oh         1 XCI      -0.710000
     15 O4          -5.5910    -2.1260     1.0960 o          1 XCI      -0.527000
     16 O1          -0.5070     0.6250    -0.7050 os         1 XCI      -0.435000
     17 P            4.1510    -1.0250     0.6810 p3         1 XCI       0.120000
     18 H1          -2.0160     1.4310    -1.8350 h2         1 XCI       0.064700
     19 H2'         -1.6030     3.4200    -0.8530 hc         1 XCI       0.072200
     20 H2          -2.3940     2.8470     0.6110 hc         1 XCI       0.072200
     21 H3          -0.2970     2.2780     1.6030 h1         1 XCI       0.071700
     22 H4           0.9970     1.9820    -1.1100 h1         1 XCI       0.078700
     23 H5           1.0590     0.3140     1.4530 h1         1 XCI       0.074700
     24 H5'          2.3320     1.3910     0.8430 h1         1 XCI       0.074700
     25 H6          -3.6580     0.2590    -2.1380 h4         1 XCI       0.205000
     26 H72         -5.7400    -2.5340    -1.7540 hc         1 XCI       0.047700
     27 H73         -6.7550    -1.1440    -1.4030 hc         1 XCI       0.047700
     28 H71         -5.5760    -1.0630    -2.7100 hc         1 XCI       0.047700
     29 H10         -3.7560    -1.1200     2.3950 hn         1 XCI       0.342500
     30 H8           0.1900     4.4070     1.1040 ho         1 XCI       0.511000
     31 H9           5.2720    -2.8040     0.1040 ho         1 XCI       0.462000
     32 H11          5.4290     0.7050     1.0030 ho         1 XCI       0.462000
     33 C7          -5.7500    -1.4440    -1.7060 c3         1 XCI      -0.019900
     34 OP1          4.7780    -2.1240    -0.3690 oh         1 XCI      -0.483600
     35 OP2          4.9420     0.3500     0.2490 oh         1 XCI      -0.483600
@<TRIPOS>BOND
     1     1     9 1   
     2     1    17 1   
     3     2     4 1   
     4     2    11 1   
     5     2    16 1   
     6     2    18 1   
     7     3    11 1   
     8     3    12 1   
     9     3    13 2   
    10     4     5 1   
    11     4    19 1   
    12     4    20 1   
    13     5     7 1   
    14     5    14 1   
    15     5    21 1   
    16     6     8 1   
    17     6    12 1   
    18     6    15 2   
    19     7     9 1   
    20     7    16 1   
    21     7    22 1   
    22     8    10 2   
    23     8    33 1   
    24     9    23 1   
    25     9    24 1   
    26    10    11 1   
    27    10    25 1   
    28    12    29 1   
    29    14    30 1   
    30    17    34 1   
    31    17    35 1   
    32    26    33 1   
    33    27    33 1   
    34    28    33 1   
    35    31    34 1   
    36    32    35 1   
@<TRIPOS>SUBSTRUCTURE
     1 XCI         1 TEMP              0 ****  ****    0 ROOT
