@<TRIPOS>MOLECULE
XCI
   35    36     1     0     0
SMALL
No Charge or Current Charge


@<TRIPOS>ATOM
      1 SE1          2.8830    -0.3110    -0.7090 ss         1 XCI      -0.365800
      2 C1          -1.5980     0.8530    -0.9070 c5         1 XCI       0.352700
      3 C2          -2.7150    -0.4130     0.9730 c          1 XCI       0.625000
      4 C8          -1.5880     2.3110    -0.3470 c5         1 XCI      -0.151400
      5 C3          -0.2550     2.3550     0.4500 c5         1 XCI       0.137300
      6 C4          -4.9740    -1.3120     0.6900 c          1 XCI       0.588200
      7 C9           0.5930     1.3390    -0.3700 c5         1 XCI       0.178300
      8 C5          -5.0070    -0.7000    -0.6570 cc         1 XCI      -0.260400
      9 C10          1.8760     0.8470     0.3370 c3         1 XCI       0.152600
     10 C6          -3.9130     0.0020    -1.1170 cd         1 XCI      -0.002400
     11 N1          -2.7710     0.1440    -0.3270 n          1 XCI      -0.317000
     12 N3          -3.8190    -1.0980     1.3690 ns         1 XCI      -0.467500
     13 O2          -1.7770    -0.2920     1.7430 o          1 XCI      -0.566000
     14 O3           0.3070     3.6710     0.4780 oh         1 XCI      -0.710000
     15 O4          -5.8850    -1.9550     1.1860 o          1 XCI      -0.527000
     16 O1          -0.3370     0.2550    -0.5610 os         1 XCI      -0.435000
     17 P            4.5070    -0.7430     0.6230 p3         1 XCI       0.120000
     18 H1          -1.7180     0.8590    -1.9980 h2         1 XCI       0.064700
     19 H2'         -1.5900     3.0290    -1.1750 hc         1 XCI       0.072200
     20 H2          -2.4550     2.5450     0.2820 hc         1 XCI       0.072200
     21 H3          -0.4020     1.9750     1.4730 h1         1 XCI       0.071700
     22 H4           0.8640     1.7570    -1.3490 h1         1 XCI       0.078700
     23 H5           1.6010     0.3420     1.2710 h1         1 XCI       0.074700
     24 H5'          2.4960     1.7170     0.5900 h1         1 XCI       0.074700
     25 H6          -3.8580     0.4770    -2.0940 h4         1 XCI       0.205000
     26 H72         -6.4710    -1.9690    -1.6180 hc         1 XCI       0.047700
     27 H73         -7.1420    -0.4810    -0.9220 hc         1 XCI       0.047700
     28 H71         -6.2180    -0.4170    -2.4310 hc         1 XCI       0.047700
     29 H10         -3.7750    -1.4940     2.2940 hn         1 XCI       0.342500
     30 H8          -0.3110     4.2420     0.9930 ho         1 XCI       0.511000
     31 H9           5.7270    -2.5140     0.2180 ho         1 XCI       0.462000
     32 H11          5.4210     0.8720     1.7870 ho         1 XCI       0.462000
     33 C7          -6.2780    -0.9030    -1.4490 c3         1 XCI      -0.019900
     34 OP1          5.5790    -1.6680    -0.2570 oh         1 XCI      -0.483600
     35 OP2          5.3260     0.6960     0.8260 oh         1 XCI      -0.483600
@<TRIPOS>BOND
     1     1     9 1   
     2     1    17 1   
     3     2     4 1   
     4     2    11 1   
     5     2    16 1   
     6     2    18 1   
     7     3    11 1   
     8     3    12 1   
     9     3    13 2   
    10     4     5 1   
    11     4    19 1   
    12     4    20 1   
    13     5     7 1   
    14     5    14 1   
    15     5    21 1   
    16     6     8 1   
    17     6    12 1   
    18     6    15 2   
    19     7     9 1   
    20     7    16 1   
    21     7    22 1   
    22     8    10 2   
    23     8    33 1   
    24     9    23 1   
    25     9    24 1   
    26    10    11 1   
    27    10    25 1   
    28    12    29 1   
    29    14    30 1   
    30    17    34 1   
    31    17    35 1   
    32    26    33 1   
    33    27    33 1   
    34    28    33 1   
    35    31    34 1   
    36    32    35 1   
@<TRIPOS>SUBSTRUCTURE
     1 XCI         1 TEMP              0 ****  ****    0 ROOT
