@<TRIPOS>MOLECULE
XCJ
   41    44     1     0     0
SMALL
abcg2


@<TRIPOS>ATOM
      1 C01         15.2320    13.8980    35.0290 c3         1 XCJ      -0.337100
      2 C03         12.6550    14.9870    35.1280 ca         1 XCJ      -0.277500
      3 C04         12.0530    15.4160    33.9580 ca         1 XCJ       0.046000
      4 C05         10.7280    15.0600    33.7640 ca         1 XCJ      -0.260000
      5 C06         10.0220    14.2890    34.7010 ca         1 XCJ       0.175400
      6 C07         10.6540    13.8790    35.8760 ca         1 XCJ      -0.087000
      7 C08         11.9690    14.2360    36.0880 ca         1 XCJ      -0.024000
      8 C10          8.4370    14.5320    33.2180 cc         1 XCJ       0.454800
      9 C13          6.8070    14.9210    31.4690 c          1 XCJ       0.608100
     10 C14          5.4170    14.5320    31.0230 c3         1 XCJ      -0.174700
     11 C15          4.7880    15.5680    30.1520 cc         1 XCJ       0.317300
     12 C16          3.8270    16.4320    30.5600 cd         1 XCJ      -0.270000
     13 C18          4.5330    16.6550    28.2700 cd         1 XCJ       0.545900
     14 C20          5.7250    16.4890    26.1480 cc         1 XCJ      -0.170500
     15 C21          5.6420    17.1000    24.9340 cd         1 XCJ      -0.165500
     16 C22          4.5690    18.0370    24.9950 cd         1 XCJ      -0.165500
     17 C23          4.0350    17.9650    26.2460 cc         1 XCJ      -0.170500
     18 N09          8.7290    14.0050    34.3590 nd         1 XCJ      -0.618100
     19 N12          7.2020    14.3690    32.6580 ns         1 XCJ      -0.408400
     20 N19          4.7400    17.0190    26.9540 na         1 XCJ       0.011500
     21 N24          5.1760    15.6990    28.8470 nc         1 XCJ      -0.661000
     22 O25          7.5480    15.6400    30.8360 o          1 XCJ      -0.533100
     23 O26         14.7580    16.4180    34.4570 o          1 XCJ      -0.524500
     24 O27         14.5240    15.6620    36.8460 o          1 XCJ      -0.524500
     25 S02         14.3560    15.3960    35.4200 sy         1 XCJ       1.062500
     26 S11          9.6950    15.4450    32.4210 ss         1 XCJ       0.155800
     27 S17          3.3850    17.4780    29.2680 ss         1 XCJ      -0.000400
     28 H1          16.2930    14.0930    35.1910 h1         1 XCJ       0.102700
     29 H2          14.8980    13.0960    35.6840 h1         1 XCJ       0.102700
     30 H3          15.0540    13.6370    33.9880 h1         1 XCJ       0.102700
     31 H4          12.5910    16.0030    33.2260 ha         1 XCJ       0.150000
     32 H5          10.1140    13.2930    36.6080 ha         1 XCJ       0.136000
     33 H6          12.4650    13.9280    36.9990 ha         1 XCJ       0.133000
     34 H7           4.7810    14.3270    31.8850 hc         1 XCJ       0.082700
     35 H8           5.5090    13.5880    30.4740 hc         1 XCJ       0.082700
     36 H9           3.3600    16.5110    31.5290 h4         1 XCJ       0.166000
     37 H11          6.2810    16.9030    24.0880 ha         1 XCJ       0.138500
     38 H12          4.2300    18.6870    24.2050 ha         1 XCJ       0.138500
     39 H13          3.2080    18.5050    26.6790 h4         1 XCJ       0.160000
     40 H14          6.5590    13.7900    33.1840 hn         1 XCJ       0.342500
     41 H10          6.3940    15.7320    26.5190 h4         1 XCJ       0.160000
@<TRIPOS>BOND
     1     1    25 1   
     2     1    28 1   
     3     1    29 1   
     4     1    30 1   
     5     2     3 ar  
     6     2     7 ar  
     7     2    25 1   
     8     3     4 ar  
     9     3    31 1   
    10     4     5 ar  
    11     4    26 1   
    12     5     6 ar  
    13     5    18 1   
    14     6     7 ar  
    15     6    32 1   
    16     7    33 1   
    17     8    18 2   
    18     8    19 1   
    19     8    26 1   
    20     9    10 1   
    21     9    19 1   
    22     9    22 2   
    23    10    11 1   
    24    10    34 1   
    25    10    35 1   
    26    11    12 2   
    27    11    21 1   
    28    12    27 1   
    29    12    36 1   
    30    13    20 1   
    31    13    21 2   
    32    13    27 1   
    33    14    15 2   
    34    14    20 1   
    35    14    41 1   
    36    15    16 1   
    37    15    37 1   
    38    16    17 2   
    39    16    38 1   
    40    17    20 1   
    41    17    39 1   
    42    19    40 1   
    43    23    25 2   
    44    24    25 2   
@<TRIPOS>SUBSTRUCTURE
     1 XCJ         1 TEMP              0 ****  ****    0 ROOT
