@<TRIPOS>MOLECULE
XCJ
   41    44     1     0     0
SMALL
No Charge or Current Charge


@<TRIPOS>ATOM
      1 C01         15.0520    13.6640    36.2360 c3         1 XCJ      -0.337100
      2 C03         12.6890    15.0320    35.5550 ca         1 XCJ      -0.277500
      3 C04         12.4530    15.0820    34.1640 ca         1 XCJ       0.046000
      4 C05         11.1490    14.8500    33.7000 ca         1 XCJ      -0.260000
      5 C06         10.1020    14.5780    34.5540 ca         1 XCJ       0.175400
      6 C07         10.3250    14.5240    35.9370 ca         1 XCJ      -0.087000
      7 C08         11.6210    14.7500    36.4410 ca         1 XCJ      -0.024000
      8 C10          9.0100    14.4910    32.6460 cc         1 XCJ       0.454800
      9 C13          7.7380    14.3880    30.5210 c          1 XCJ       0.608100
     10 C14          6.3210    14.1690    30.0090 c3         1 XCJ      -0.174700
     11 C15          5.6810    15.4530    29.5870 cc         1 XCJ       0.317300
     12 C16          5.5040    16.5570    30.3910 cd         1 XCJ      -0.270000
     13 C18          4.6750    16.7680    28.1530 cd         1 XCJ       0.545900
     14 C20          4.0490    16.3380    25.7900 cc         1 XCJ      -0.170500
     15 C21          3.4270    17.0960    24.8350 cd         1 XCJ      -0.165500
     16 C22          3.1090    18.3590    25.3780 cd         1 XCJ      -0.165500
     17 C23          3.5270    18.4100    26.6810 cc         1 XCJ      -0.170500
     18 N09          8.8600    14.3670    33.9680 nd         1 XCJ      -0.618100
     19 N12          7.8780    14.3180    31.8860 ns         1 XCJ      -0.408400
     20 N19          4.1070    17.1570    26.9260 na         1 XCJ       0.011500
     21 N24          5.2050    15.5590    28.3060 nc         1 XCJ      -0.661000
     22 O25          8.6660    14.6130    29.7610 o          1 XCJ      -0.533100
     23 O26         15.1210    16.0700    35.1980 o          1 XCJ      -0.524500
     24 O27         14.2560    15.7630    37.5880 o          1 XCJ      -0.524500
     25 S02         14.3510    15.3120    36.1930 sy         1 XCJ       1.062500
     26 S11         10.6430    14.8660    32.0190 ss         1 XCJ       0.155800
     27 S17          4.7010    17.8620    29.5270 ss         1 XCJ      -0.000400
     28 H1          16.0750    13.7380    36.6160 h1         1 XCJ       0.102700
     29 H2          14.4350    13.0480    36.8980 h1         1 XCJ       0.102700
     30 H3          15.0440    13.2630    35.2170 h1         1 XCJ       0.102700
     31 H4          13.2580    15.2920    33.4600 ha         1 XCJ       0.150000
     32 H5           9.5030    14.3080    36.6140 ha         1 XCJ       0.136000
     33 H6          11.7890    14.7040    37.5160 ha         1 XCJ       0.133000
     34 H7           5.7000    13.7190    30.7910 hc         1 XCJ       0.082700
     35 H8           6.3710    13.4880    29.1520 hc         1 XCJ       0.082700
     36 H9           5.7930    16.6810    31.4280 h4         1 XCJ       0.166000
     37 H11          3.2130    16.7740    23.8190 ha         1 XCJ       0.138500
     38 H12          2.6100    19.1660    24.8480 ha         1 XCJ       0.138500
     39 H13          3.4600    19.2030    27.4160 h4         1 XCJ       0.160000
     40 H14          7.0340    14.1150    32.3990 hn         1 XCJ       0.342500
     41 H10          4.4400    15.3280    25.7600 h4         1 XCJ       0.160000
@<TRIPOS>BOND
     1     1    25 1   
     2     1    28 1   
     3     1    29 1   
     4     1    30 1   
     5     2     3 ar  
     6     2     7 ar  
     7     2    25 1   
     8     3     4 ar  
     9     3    31 1   
    10     4     5 ar  
    11     4    26 1   
    12     5     6 ar  
    13     5    18 1   
    14     6     7 ar  
    15     6    32 1   
    16     7    33 1   
    17     8    18 2   
    18     8    19 1   
    19     8    26 1   
    20     9    10 1   
    21     9    19 1   
    22     9    22 2   
    23    10    11 1   
    24    10    34 1   
    25    10    35 1   
    26    11    12 2   
    27    11    21 1   
    28    12    27 1   
    29    12    36 1   
    30    13    20 1   
    31    13    21 2   
    32    13    27 1   
    33    14    15 2   
    34    14    20 1   
    35    14    41 1   
    36    15    16 1   
    37    15    37 1   
    38    16    17 2   
    39    16    38 1   
    40    17    20 1   
    41    17    39 1   
    42    19    40 1   
    43    23    25 2   
    44    24    25 2   
@<TRIPOS>SUBSTRUCTURE
     1 XCJ         1 TEMP              0 ****  ****    0 ROOT
