@<TRIPOS>MOLECULE
XCK
   69    70     1     0     0
SMALL
No Charge or Current Charge


@<TRIPOS>ATOM
      1 C02         10.9480    24.5500    25.3310 c          1 XCK       0.638100
      2 C04         10.9920    22.4150    26.6860 c3         1 XCK       0.052700
      3 C05         12.3560    22.1910    27.4020 c3         1 XCK      -0.083400
      4 C06         13.6240    22.6020    26.6010 c3         1 XCK      -0.060700
      5 C07         13.8280    21.7450    25.3290 c3         1 XCK      -0.090600
      6 C08         14.8820    22.5480    27.4970 c3         1 XCK      -0.090600
      7 C09          9.8270    21.7730    27.4940 c          1 XCK       0.580100
      8 C11          8.7410    19.5560    28.0880 c3         1 XCK       0.049400
      9 C12          7.8810    18.8310    27.0220 c3         1 XCK      -0.068400
     10 C13          7.1340    19.7630    26.0250 c5         1 XCK      -0.153700
     11 C14          6.3040    19.0100    24.9770 c          1 XCK       0.559000
     12 C16          5.2040    21.0720    25.4390 c5         1 XCK       0.100000
     13 C17          6.0860    20.7160    26.6660 c5         1 XCK      -0.088400
     14 C19          9.3680    18.5730    29.0700 c2         1 XCK       0.404200
     15 C23         10.7260    26.7530    24.4130 c3         1 XCK       0.190600
     16 C24         10.2610    28.1760    24.8360 c3         1 XCK       0.110000
     17 C25         11.1360    28.7240    25.9930 c3         1 XCK      -0.084100
     18 C26          8.7620    28.1750    25.2320 c3         1 XCK      -0.084100
     19 C28          9.9430    30.8910    23.8690 ca         1 XCK      -0.106000
     20 C29          8.6000    31.2730    23.6980 ca         1 XCK      -0.066500
     21 C30          8.1750    32.5520    24.1010 ca         1 XCK      -0.124000
     22 C31          9.0940    33.4520    24.6680 ca         1 XCK      -0.086000
     23 C32         10.4390    33.0750    24.8270 ca         1 XCK      -0.124000
     24 C33         10.8640    31.7970    24.4240 ca         1 XCK      -0.066500
     25 N03         10.7280    23.8560    26.4850 ns         1 XCK      -0.474900
     26 N10          9.7770    20.3930    27.4460 ns         1 XCK      -0.499900
     27 N15          5.2140    19.7980    24.7230 ns         1 XCK      -0.512900
     28 O01         11.3790    24.0790    24.2920 o          1 XCK      -0.548000
     29 O18          6.4000    17.8580    24.5860 o          1 XCK      -0.567000
     30 O21          9.0060    22.4300    28.1220 o          1 XCK      -0.598100
     31 O22         10.5800    25.8450    25.5240 os         1 XCK      -0.460100
     32 S27         10.4860    29.2690    23.3460 ss         1 XCK      -0.257000
     33 H1          11.0020    21.9140    25.7110 h1         1 XCK       0.076700
     34 H2          12.3370    22.7440    28.3510 hc         1 XCK       0.057700
     35 H3          12.4500    21.1320    27.6730 hc         1 XCK       0.057700
     36 H4          13.5070    23.6460    26.2840 hc         1 XCK       0.050700
     37 H5          14.7340    22.0560    24.7960 hc         1 XCK       0.036533
     38 H6          13.9320    20.6830    25.5860 hc         1 XCK       0.036533
     39 H7          12.9870    21.8490    24.6350 hc         1 XCK       0.036533
     40 H8          14.7670    23.2020    28.3700 hc         1 XCK       0.036533
     41 H9          15.0650    21.5270    27.8550 hc         1 XCK       0.036533
     42 H10         15.7680    22.8810    26.9430 hc         1 XCK       0.036533
     43 H11          8.0710    20.2050    28.6670 h1         1 XCK       0.108700
     44 H12          7.1500    18.1970    27.5400 hc         1 XCK       0.062200
     45 H13          8.5290    18.1460    26.4610 hc         1 XCK       0.062200
     46 H14          7.8580    20.3730    25.4720 hc         1 XCK       0.089700
     47 H15          5.6560    21.8720    24.8370 h1         1 XCK       0.048200
     48 H16          4.1940    21.3880    25.7350 h1         1 XCK       0.048200
     49 H17          5.4930    20.1990    27.4310 hc         1 XCK       0.065200
     50 H18          6.5290    21.6010    27.1350 hc         1 XCK       0.065200
     51 H19         10.0350    17.8200    28.6590 h4         1 XCK      -0.042200
     52 H20         10.1230    26.4150    23.5590 h1         1 XCK       0.064700
     53 H21         11.7740    26.7980    24.0880 h1         1 XCK       0.064700
     54 H22         11.0770    28.0720    26.8730 hc         1 XCK       0.047867
     55 H23         12.1870    28.7900    25.6880 hc         1 XCK       0.047867
     56 H24         10.8050    29.7220    26.3010 hc         1 XCK       0.047867
     57 H25          8.5780    27.4940    26.0720 hc         1 XCK       0.047867
     58 H26          8.4330    29.1730    25.5410 hc         1 XCK       0.047867
     59 H27          8.1370    27.8530    24.3910 hc         1 XCK       0.047867
     60 H28          7.8870    30.5800    23.2560 ha         1 XCK       0.125000
     61 H29          7.1360    32.8440    23.9720 ha         1 XCK       0.117000
     62 H30          8.7650    34.4420    24.9790 ha         1 XCK       0.115000
     63 H31         11.1520    33.7730    25.2610 ha         1 XCK       0.117000
     64 H32         11.9060    31.5090    24.5450 ha         1 XCK       0.125000
     65 H33         10.3180    24.3860    27.2450 hn         1 XCK       0.334500
     66 H34         10.4980    19.9310    26.9020 hn         1 XCK       0.315500
     67 H35          4.4840    19.4480    24.1140 hn         1 XCK       0.326500
     68 H36          9.6840    17.8460    30.7890 hn         1 XCK       0.380400
     69 N20          9.1490    18.6030    30.3380 n2         1 XCK      -0.728100
@<TRIPOS>BOND
     1     1    25 1   
     2     1    28 2   
     3     1    31 1   
     4     2     3 1   
     5     2     7 1   
     6     2    25 1   
     7     2    33 1   
     8     3     4 1   
     9     3    34 1   
    10     3    35 1   
    11     4     5 1   
    12     4     6 1   
    13     4    36 1   
    14     5    37 1   
    15     5    38 1   
    16     5    39 1   
    17     6    40 1   
    18     6    41 1   
    19     6    42 1   
    20     7    26 1   
    21     7    30 2   
    22     8     9 1   
    23     8    14 1   
    24     8    26 1   
    25     8    43 1   
    26     9    10 1   
    27     9    44 1   
    28     9    45 1   
    29    10    11 1   
    30    10    13 1   
    31    10    46 1   
    32    11    27 1   
    33    11    29 2   
    34    12    13 1   
    35    12    27 1   
    36    12    47 1   
    37    12    48 1   
    38    13    49 1   
    39    13    50 1   
    40    14    51 1   
    41    14    69 2   
    42    15    16 1   
    43    15    31 1   
    44    15    52 1   
    45    15    53 1   
    46    16    17 1   
    47    16    18 1   
    48    16    32 1   
    49    17    54 1   
    50    17    55 1   
    51    17    56 1   
    52    18    57 1   
    53    18    58 1   
    54    18    59 1   
    55    19    20 ar  
    56    19    24 ar  
    57    19    32 1   
    58    20    21 ar  
    59    20    60 1   
    60    21    22 ar  
    61    21    61 1   
    62    22    23 ar  
    63    22    62 1   
    64    23    24 ar  
    65    23    63 1   
    66    24    64 1   
    67    25    65 1   
    68    26    66 1   
    69    27    67 1   
    70    68    69 1   
@<TRIPOS>SUBSTRUCTURE
     1 XCK         1 TEMP              0 ****  ****    0 ROOT
