@<TRIPOS>MOLECULE
XCK
   69    70     1     0     0
SMALL
abcg2


@<TRIPOS>ATOM
      1 C02         10.5070    24.2250    25.8090 c          1 XCK       0.638100
      2 C04         11.5000    22.3290    26.9660 c3         1 XCK       0.052700
      3 C05         12.6670    22.0450    27.9170 c3         1 XCK      -0.083400
      4 C06         14.0460    22.4870    27.4080 c3         1 XCK      -0.060700
      5 C07         14.4130    21.8250    26.0790 c3         1 XCK      -0.090600
      6 C08         15.1000    22.1890    28.4760 c3         1 XCK      -0.090600
      7 C09         10.2010    21.7820    27.5760 c          1 XCK       0.580100
      8 C11          8.7000    19.8200    27.6430 c3         1 XCK       0.049400
      9 C12          7.8150    19.4080    26.4580 c3         1 XCK      -0.068400
     10 C13          7.3950    20.5930    25.5990 c5         1 XCK      -0.153700
     11 C14          6.5230    20.1850    24.4130 c          1 XCK       0.559000
     12 C16          5.6920    22.2570    25.1780 c5         1 XCK       0.100000
     13 C17          6.5610    21.6730    26.3020 c5         1 XCK      -0.088400
     14 C19          9.1060    18.6070    28.4410 c2         1 XCK       0.404200
     15 C23          9.6030    26.2060    24.8780 c3         1 XCK       0.190600
     16 C24          9.7440    27.7190    25.0520 c3         1 XCK       0.110000
     17 C25         11.1830    28.1680    24.8200 c3         1 XCK      -0.084100
     18 C26          9.2410    28.1660    26.4210 c3         1 XCK      -0.084100
     19 C28          8.7720    30.1260    23.8610 ca         1 XCK      -0.106000
     20 C29          7.8820    30.8340    24.6720 ca         1 XCK      -0.066500
     21 C30          7.9780    32.2170    24.7730 ca         1 XCK      -0.124000
     22 C31          8.9600    32.9030    24.0650 ca         1 XCK      -0.086000
     23 C32          9.8420    32.2030    23.2480 ca         1 XCK      -0.124000
     24 C33          9.7480    30.8200    23.1430 ca         1 XCK      -0.066500
     25 N03         11.3900    23.7490    26.7120 ns         1 XCK      -0.474900
     26 N10          9.8860    20.5320    27.1890 ns         1 XCK      -0.499900
     27 N15          5.5770    21.1310    24.2580 ns         1 XCK      -0.512900
     28 O01          9.8560    23.5360    25.0400 o          1 XCK      -0.548000
     29 O18          6.6680    19.1860    23.7130 o          1 XCK      -0.567000
     30 O21          9.5380    22.4410    28.3720 o          1 XCK      -0.598100
     31 O22         10.4510    25.5730    25.8520 os         1 XCK      -0.460100
     32 S27          8.6230    28.3600    23.6950 ss         1 XCK      -0.257000
     33 H1          11.6730    21.8250    26.0150 h1         1 XCK       0.076700
     34 H2          12.4580    22.5340    28.8730 hc         1 XCK       0.057700
     35 H3          12.6860    20.9680    28.1080 hc         1 XCK       0.057700
     36 H4          14.0240    23.5700    27.2530 hc         1 XCK       0.050700
     37 H5          15.4210    22.1110    25.7740 hc         1 XCK       0.036533
     38 H6          14.3850    20.7350    26.1720 hc         1 XCK       0.036533
     39 H7          13.7310    22.1120    25.2770 hc         1 XCK       0.036533
     40 H8          14.8540    22.6790    29.4210 hc         1 XCK       0.036533
     41 H9          15.1680    21.1130    28.6610 hc         1 XCK       0.036533
     42 H10         16.0850    22.5390    28.1590 hc         1 XCK       0.036533
     43 H11          8.1550    20.4960    28.2970 h1         1 XCK       0.108700
     44 H12          6.9300    18.9050    26.8570 hc         1 XCK       0.062200
     45 H13          8.3490    18.6820    25.8400 hc         1 XCK       0.062200
     46 H14          8.2890    21.0520    25.1620 hc         1 XCK       0.089700
     47 H15          6.1810    23.1060    24.6910 h1         1 XCK       0.048200
     48 H16          4.7100    22.5780    25.5250 h1         1 XCK       0.048200
     49 H17          5.9230    21.2060    27.0560 hc         1 XCK       0.065200
     50 H18          7.1690    22.4310    26.7890 hc         1 XCK       0.065200
     51 H19          9.8670    17.9730    27.9710 h4         1 XCK      -0.042200
     52 H20          8.5720    25.8910    25.0420 h1         1 XCK       0.064700
     53 H21          9.9150    25.8990    23.8790 h1         1 XCK       0.064700
     54 H22         11.8290    27.7390    25.5880 hc         1 XCK       0.047867
     55 H23         11.5440    27.8470    23.8420 hc         1 XCK       0.047867
     56 H24         11.2630    29.2530    24.8820 hc         1 XCK       0.047867
     57 H25          9.8750    27.7400    27.2010 hc         1 XCK       0.047867
     58 H26          9.2820    29.2510    26.5100 hc         1 XCK       0.047867
     59 H27          8.2140    27.8400    26.5880 hc         1 XCK       0.047867
     60 H28          7.1180    30.2990    25.2200 ha         1 XCK       0.125000
     61 H29          7.2850    32.7580    25.4050 ha         1 XCK       0.117000
     62 H30          9.0330    33.9800    24.1440 ha         1 XCK       0.115000
     63 H31         10.6040    32.7320    22.6900 ha         1 XCK       0.117000
     64 H32         10.4300    30.2740    22.5050 ha         1 XCK       0.125000
     65 H33         11.7540    24.3950    27.3950 hn         1 XCK       0.334500
     66 H34         10.4580    20.0910    26.4840 hn         1 XCK       0.315500
     67 H35          4.9640    21.1360    23.4560 hn         1 XCK       0.326500
     68 H36          8.9590    17.4760    29.9460 hn         1 XCK       0.380400
     69 N20          8.5810    18.3430    29.5620 n2         1 XCK      -0.728100
@<TRIPOS>BOND
     1     1    25 1   
     2     1    28 2   
     3     1    31 1   
     4     2     3 1   
     5     2     7 1   
     6     2    25 1   
     7     2    33 1   
     8     3     4 1   
     9     3    34 1   
    10     3    35 1   
    11     4     5 1   
    12     4     6 1   
    13     4    36 1   
    14     5    37 1   
    15     5    38 1   
    16     5    39 1   
    17     6    40 1   
    18     6    41 1   
    19     6    42 1   
    20     7    26 1   
    21     7    30 2   
    22     8     9 1   
    23     8    14 1   
    24     8    26 1   
    25     8    43 1   
    26     9    10 1   
    27     9    44 1   
    28     9    45 1   
    29    10    11 1   
    30    10    13 1   
    31    10    46 1   
    32    11    27 1   
    33    11    29 2   
    34    12    13 1   
    35    12    27 1   
    36    12    47 1   
    37    12    48 1   
    38    13    49 1   
    39    13    50 1   
    40    14    51 1   
    41    14    69 2   
    42    15    16 1   
    43    15    31 1   
    44    15    52 1   
    45    15    53 1   
    46    16    17 1   
    47    16    18 1   
    48    16    32 1   
    49    17    54 1   
    50    17    55 1   
    51    17    56 1   
    52    18    57 1   
    53    18    58 1   
    54    18    59 1   
    55    19    20 ar  
    56    19    24 ar  
    57    19    32 1   
    58    20    21 ar  
    59    20    60 1   
    60    21    22 ar  
    61    21    61 1   
    62    22    23 ar  
    63    22    62 1   
    64    23    24 ar  
    65    23    63 1   
    66    24    64 1   
    67    25    65 1   
    68    26    66 1   
    69    27    67 1   
    70    68    69 1   
@<TRIPOS>SUBSTRUCTURE
     1 XCK         1 TEMP              0 ****  ****    0 ROOT
