@<TRIPOS>MOLECULE
XCN
   14    13     1     0     0
SMALL
No Charge or Current Charge


@<TRIPOS>ATOM
      1 C          -12.0930   -41.2820    -3.0970 c          1 XCN       0.710000
      2 N          -10.2960   -43.0520    -2.3780 n8         1 XCN      -0.979200
      3 O          -11.4740   -40.4250    -3.7160 o          1 XCN      -0.708500
      4 CA         -11.3570   -42.0670    -1.9380 c3         1 XCN       0.012500
      5 CB         -10.7960   -41.0900    -0.8660 c3         1 XCN       0.103600
      6 NC         -13.0050   -38.0730    -1.4090 n1         1 XCN      -0.454000
      7 SG         -12.1340   -40.3040     0.1470 ss         1 XCN      -0.232100
      8 CS         -12.6400   -39.0000    -0.8070 c1         1 XCN       0.373100
      9 OXT        -13.2370   -41.6160    -3.3800 o          1 XCN      -0.708500
     10 HN          -9.9930   -43.6170    -1.5750 hn         1 XCN       0.369500
     11 HNX        -10.7150   -43.7390    -3.0170 hn         1 XCN       0.369500
     12 HA         -12.1250   -42.6740    -1.4400 h1         1 XCN       0.017700
     13 HB         -10.1640   -41.6570    -0.1710 h1         1 XCN       0.063700
     14 HBA        -10.1720   -40.3160    -1.3300 h1         1 XCN       0.063700
@<TRIPOS>BOND
     1     1     3 1   
     2     1     4 1   
     3     1     9 1   
     4     2     4 1   
     5     2    10 1   
     6     2    11 1   
     7     4     5 1   
     8     4    12 1   
     9     5     7 1   
    10     5    13 1   
    11     5    14 1   
    12     6     8 3   
    13     7     8 1   
@<TRIPOS>SUBSTRUCTURE
     1 XCN         1 TEMP              0 ****  ****    0 ROOT
