@<TRIPOS>MOLECULE
XCN
   14    13     1     0     0
SMALL
abcg2


@<TRIPOS>ATOM
      1 C          -12.1500   -41.3840    -3.0150 c          1 XCN       0.710000
      2 N          -10.2530   -42.8530    -2.3940 n8         1 XCN      -0.979200
      3 O          -11.4370   -40.6550    -3.7290 o          1 XCN      -0.708500
      4 CA         -11.4200   -42.1480    -1.8790 c3         1 XCN       0.012500
      5 CB         -10.8890   -41.1660    -0.8430 c3         1 XCN       0.103600
      6 NC         -12.7790   -38.0380    -1.5410 n1         1 XCN      -0.454000
      7 SG         -12.2140   -40.2930     0.0790 ss         1 XCN      -0.232100
      8 CS         -12.5260   -38.9790    -0.9190 c1         1 XCN       0.373100
      9 OXT        -13.3810   -41.5530    -3.0910 o          1 XCN      -0.708500
     10 HN          -9.9370   -43.5260    -1.7060 hn         1 XCN       0.369500
     11 HNX        -10.5070   -43.3920    -3.2120 hn         1 XCN       0.369500
     12 HA         -12.1400   -42.8140    -1.3850 h1         1 XCN       0.017700
     13 HB         -10.3430   -41.6810    -0.0500 h1         1 XCN       0.063700
     14 HBA        -10.2250   -40.4300    -1.2930 h1         1 XCN       0.063700
@<TRIPOS>BOND
     1     1     3 1   
     2     1     4 1   
     3     1     9 1   
     4     2     4 1   
     5     2    10 1   
     6     2    11 1   
     7     4     5 1   
     8     4    12 1   
     9     5     7 1   
    10     5    13 1   
    11     5    14 1   
    12     6     8 3   
    13     7     8 1   
@<TRIPOS>SUBSTRUCTURE
     1 XCN         1 TEMP              0 ****  ****    0 ROOT
