@<TRIPOS>MOLECULE
XCP
   19    19     1     0     0
SMALL
abcg2


@<TRIPOS>ATOM
      1 N           -1.0450    -1.9870     0.4560 n8         1 XCP      -1.006200
      2 CB          -0.8870    -0.7500    -0.2940 c5         1 XCP       0.177500
      3 CG          -2.2110     0.0400    -0.4080 c5         1 XCP      -0.083400
      4 CD          -1.8910     1.4860     0.0130 c5         1 XCP      -0.083400
      5 CE          -0.3690     1.5870    -0.0800 c5         1 XCP      -0.054400
      6 CA           0.0940     0.2120     0.3890 c5         1 XCP      -0.189700
      7 C            1.5760    -0.1190     0.1720 c          1 XCP       0.722000
      8 O            1.8890    -1.3310     0.1810 o          1 XCP      -0.742000
      9 HN          -1.6130    -2.6370    -0.0750 hn         1 XCP       0.394000
     10 HB          -0.5120    -0.9320    -1.3140 h1         1 XCP       0.015700
     11 HG          -2.5950     0.0030    -1.4290 hc         1 XCP       0.020700
     12 HGA         -2.9750    -0.4040     0.2320 hc         1 XCP       0.020700
     13 HD          -2.4100     2.2310    -0.5920 hc         1 XCP       0.017200
     14 HDA         -2.1990     1.6500     1.0490 hc         1 XCP       0.017200
     15 HE          -0.0610     1.7520    -1.1170 hc         1 XCP       0.039200
     16 HEA          0.0430     2.4050     0.5110 hc         1 XCP       0.039200
     17 HA          -0.1010     0.1410     1.4700 hc         1 XCP       0.044700
     18 HNA         -0.1260    -2.4090     0.5270 hn         1 XCP       0.394000
     19 OXT          2.3650     0.8360     0.0290 o          1 XCP      -0.742000
@<TRIPOS>BOND
     1     1     2 1   
     2     1     9 1   
     3     1    18 1   
     4     2     3 1   
     5     2     6 1   
     6     2    10 1   
     7     3     4 1   
     8     3    11 1   
     9     3    12 1   
    10     4     5 1   
    11     4    13 1   
    12     4    14 1   
    13     5     6 1   
    14     5    15 1   
    15     5    16 1   
    16     6     7 1   
    17     6    17 1   
    18     7     8 1   
    19     7    19 1   
@<TRIPOS>SUBSTRUCTURE
     1 XCP         1 TEMP              0 ****  ****    0 ROOT
