@<TRIPOS>MOLECULE
XCP
   19    19     1     0     0
SMALL
No Charge or Current Charge


@<TRIPOS>ATOM
      1 N           -1.1260    -2.1360     0.1010 n8         1 XCP      -1.006200
      2 CB          -0.9250    -0.7460    -0.3170 c5         1 XCP       0.177500
      3 CG          -2.2120     0.1100    -0.1920 c5         1 XCP      -0.083400
      4 CD          -1.6170     1.5240    -0.3750 c5         1 XCP      -0.083400
      5 CE          -0.4760     1.4920     0.6750 c5         1 XCP      -0.054400
      6 CA           0.0930     0.0300     0.5790 c5         1 XCP      -0.189700
      7 C            1.4920     0.0340    -0.0950 c          1 XCP       0.722000
      8 O            2.4380    -0.4270     0.5280 o          1 XCP      -0.742000
      9 HN          -1.8140    -2.5730    -0.5230 hn         1 XCP       0.394000
     10 HB          -0.6010    -0.7700    -1.3670 h1         1 XCP       0.015700
     11 HG          -2.9510    -0.1310    -0.9640 hc         1 XCP       0.020700
     12 HGA         -2.7000    -0.0040     0.7840 hc         1 XCP       0.020700
     13 HD          -1.2340     1.6770    -1.3910 hc         1 XCP       0.017200
     14 HDA         -2.3470     2.3160    -0.1740 hc         1 XCP       0.017200
     15 HE           0.2800     2.2640     0.4890 hc         1 XCP       0.039200
     16 HEA         -0.8730     1.6830     1.6790 hc         1 XCP       0.039200
     17 HA           0.1760    -0.4130     1.5780 hc         1 XCP       0.044700
     18 HNA         -0.2670    -2.6660    -0.0830 hn         1 XCP       0.394000
     19 OXT          1.6360     0.5090    -1.2130 o          1 XCP      -0.742000
@<TRIPOS>BOND
     1     1     2 1   
     2     1     9 1   
     3     1    18 1   
     4     2     3 1   
     5     2     6 1   
     6     2    10 1   
     7     3     4 1   
     8     3    11 1   
     9     3    12 1   
    10     4     5 1   
    11     4    13 1   
    12     4    14 1   
    13     5     6 1   
    14     5    15 1   
    15     5    16 1   
    16     6     7 1   
    17     6    17 1   
    18     7     8 1   
    19     7    19 1   
@<TRIPOS>SUBSTRUCTURE
     1 XCP         1 TEMP              0 ****  ****    0 ROOT
