@<TRIPOS>MOLECULE
XCQ
   57    59     1     0     0
SMALL
No Charge or Current Charge


@<TRIPOS>ATOM
      1 C10        -22.9900   -12.2470    13.3900 ca         1 XCQ      -0.130300
      2 C11        -22.7420   -11.6150    12.1560 ca         1 XCQ      -0.045200
      3 C01        -22.3060   -11.5420    15.7420 c3         1 XCQ      -0.088100
      4 C02        -23.3830   -11.4600    14.6450 c3         1 XCQ       0.233600
      5 C06        -26.9230   -12.5720    15.1960 c3         1 XCQ      -0.137400
      6 C07        -27.1510   -13.9430    14.5160 c3         1 XCQ      -0.073400
      7 C08        -28.2990   -14.7470    15.1590 c3         1 XCQ       0.147800
      8 C13        -22.4250   -10.0440    10.4980 cc         1 XCQ      -0.050300
      9 C14        -22.3980    -8.7230     9.7870 c          1 XCQ       0.722200
     10 C17        -22.2050   -11.3320     9.9770 cd         1 XCQ      -0.156400
     11 C18        -21.5890   -11.6980     8.6820 ca         1 XCQ       0.086200
     12 C19        -20.5150   -10.9600     8.1460 ca         1 XCQ      -0.067000
     13 C20        -19.9190   -11.3350     6.9300 ca         1 XCQ      -0.081000
     14 C21        -20.3830   -12.4580     6.2210 ca         1 XCQ      -0.122300
     15 C22        -19.7060   -12.8360     4.8980 c3         1 XCQ      -0.199100
     16 C24        -19.4330   -12.6650     2.0640 c3         1 XCQ      -0.352100
     17 C27        -21.4580   -13.2050     6.7560 ca         1 XCQ       0.147000
     18 C29        -22.0460   -12.8260     7.9730 ca         1 XCQ      -0.119000
     19 C30        -22.3900   -12.3170    11.0340 ca         1 XCQ      -0.080800
     20 C31        -22.2250   -13.7120    11.0650 ca         1 XCQ      -0.067000
     21 C32        -22.4730   -14.3800    12.2800 ca         1 XCQ      -0.161000
     22 C33        -22.8570   -13.6560    13.4310 ca         1 XCQ      -0.103000
     23 N09        -28.4900   -16.0470    14.4910 n8         1 XCQ      -0.995200
     24 N12        -22.7700   -10.2660    11.8480 na         1 XCQ      -0.193700
     25 O03        -24.5850   -12.0230    15.1970 os         1 XCQ      -0.457100
     26 O05        -25.9010   -11.1160    13.5400 o          1 XCQ      -0.463000
     27 O15        -22.5900    -7.7210    10.4640 o          1 XCQ      -0.696000
     28 O16        -22.2590    -8.6690     8.5740 o          1 XCQ      -0.696000
     29 O25        -20.0620   -10.5670     3.5390 o          1 XCQ      -0.504000
     30 O26        -21.7750   -12.4160     3.2570 o          1 XCQ      -0.504000
     31 S23        -20.3790   -11.9980     3.4370 s6         1 XCQ       1.064000
     32 Cl1        -22.0940   -14.6260     5.9280 cl         1 XCQ      -0.233000
     33 H013       -22.6030   -10.9500    16.6150 hc         1 XCQ       0.044367
     34 H012       -22.1480   -12.5780    16.0640 hc         1 XCQ       0.044367
     35 H011       -21.3540   -11.1480    15.3700 hc         1 XCQ       0.044367
     36 H021       -23.5340   -10.4000    14.4010 h1         1 XCQ       0.061700
     37 H061       -26.6740   -12.7640    16.2460 hc         1 XCQ       0.062700
     38 H062       -27.8390   -11.9750    15.1170 hc         1 XCQ       0.062700
     39 H072       -27.3710   -13.7840    13.4520 hc         1 XCQ       0.062200
     40 H071       -26.2250   -14.5290    14.5680 hc         1 XCQ       0.062200
     41 H082       -28.0740   -14.9290    16.2190 h1         1 XCQ       0.023700
     42 H081       -29.2360   -14.1770    15.0940 h1         1 XCQ       0.023700
     43 H191       -20.1170   -10.1080     8.6880 ha         1 XCQ       0.139000
     44 H201       -19.0870   -10.7500     6.5420 ha         1 XCQ       0.110000
     45 H221       -19.7850   -13.9100     4.7020 h1         1 XCQ       0.088700
     46 H222       -18.6430   -12.5730     4.9300 h1         1 XCQ       0.088700
     47 H242       -18.3770   -12.4310     2.2380 h1         1 XCQ       0.093700
     48 H243       -19.5990   -13.7470     2.0370 h1         1 XCQ       0.093700
     49 H241       -19.7970   -12.1880     1.1480 h1         1 XCQ       0.093700
     50 H291       -22.8880   -13.3980     8.3520 ha         1 XCQ       0.130000
     51 H311       -21.9050   -14.2740    10.1930 ha         1 XCQ       0.107000
     52 H321       -22.3600   -15.4600    12.3350 ha         1 XCQ       0.093000
     53 H331       -23.0420   -14.1920    14.3590 ha         1 XCQ       0.099000
     54 H092       -29.2940   -16.5250    14.9160 hn         1 XCQ       0.390000
     55 H091       -28.7920   -15.8840    13.5230 hn         1 XCQ       0.390000
     56 H121       -23.0200    -9.5240    12.4930 hn         1 XCQ       0.370000
     57 C04        -25.7680   -11.8160    14.5340 c          1 XCQ       0.592100
@<TRIPOS>BOND
     1     1     2 ar  
     2     1     4 1   
     3     1    22 ar  
     4     2    19 ar  
     5     2    24 1   
     6     3     4 1   
     7     3    33 1   
     8     3    34 1   
     9     3    35 1   
    10     4    25 1   
    11     4    36 1   
    12     5     6 1   
    13     5    37 1   
    14     5    38 1   
    15     5    57 1   
    16     6     7 1   
    17     6    39 1   
    18     6    40 1   
    19     7    23 1   
    20     7    41 1   
    21     7    42 1   
    22     8     9 1   
    23     8    10 2   
    24     8    24 1   
    25     9    27 1   
    26     9    28 1   
    27    10    11 1   
    28    10    19 1   
    29    11    12 ar  
    30    11    18 ar  
    31    12    13 ar  
    32    12    43 1   
    33    13    14 ar  
    34    13    44 1   
    35    14    15 1   
    36    14    17 ar  
    37    15    31 1   
    38    15    45 1   
    39    15    46 1   
    40    16    31 1   
    41    16    47 1   
    42    16    48 1   
    43    16    49 1   
    44    17    18 ar  
    45    17    32 1   
    46    18    50 1   
    47    19    20 ar  
    48    20    21 ar  
    49    20    51 1   
    50    21    22 ar  
    51    21    52 1   
    52    22    53 1   
    53    23    54 1   
    54    23    55 1   
    55    24    56 1   
    56    25    57 1   
    57    26    57 2   
    58    29    31 2   
    59    30    31 2   
@<TRIPOS>SUBSTRUCTURE
     1 XCQ         1 TEMP              0 ****  ****    0 ROOT
