@<TRIPOS>MOLECULE
XCQ
   57    59     1     0     0
SMALL
abcg2


@<TRIPOS>ATOM
      1 C10        -23.3520   -12.2370    13.1350 ca         1 XCQ      -0.130300
      2 C11        -22.8200   -11.6380    11.9890 ca         1 XCQ      -0.045200
      3 C01        -22.6670   -11.3860    15.3910 c3         1 XCQ      -0.088100
      4 C02        -23.7540   -11.4150    14.3330 c3         1 XCQ       0.233600
      5 C06        -27.1910   -12.5540    15.0560 c3         1 XCQ      -0.137400
      6 C07        -26.9970   -14.0720    15.0300 c3         1 XCQ      -0.073400
      7 C08        -28.1780   -14.7920    15.6630 c3         1 XCQ       0.147800
      8 C13        -22.0510   -10.1910    10.4590 cc         1 XCQ      -0.050300
      9 C14        -21.7870    -8.7900     9.9500 c          1 XCQ       0.722200
     10 C17        -21.9210   -11.4410     9.8920 cd         1 XCQ      -0.156400
     11 C18        -21.3620   -11.8070     8.5880 ca         1 XCQ       0.086200
     12 C19        -20.1290   -11.3200     8.1500 ca         1 XCQ      -0.067000
     13 C20        -19.6120   -11.7090     6.9310 ca         1 XCQ      -0.081000
     14 C21        -20.2840   -12.6020     6.0960 ca         1 XCQ      -0.122300
     15 C22        -19.6900   -12.9520     4.7730 c3         1 XCQ      -0.199100
     16 C24        -19.3870   -12.2220     2.0640 c3         1 XCQ      -0.352100
     17 C27        -21.5050   -13.0940     6.5480 ca         1 XCQ       0.147000
     18 C29        -22.0370   -12.7100     7.7690 ca         1 XCQ      -0.119000
     19 C30        -22.4070   -12.3820    10.8610 ca         1 XCQ      -0.080800
     20 C31        -22.5100   -13.7780    10.8930 ca         1 XCQ      -0.067000
     21 C32        -23.0270   -14.3780    12.0220 ca         1 XCQ      -0.161000
     22 C33        -23.4420   -13.6180    13.1270 ca         1 XCQ      -0.103000
     23 N09        -27.9670   -16.2320    15.6500 n8         1 XCQ      -0.995200
     24 N12        -22.5850   -10.3280    11.7070 na         1 XCQ      -0.193700
     25 O03        -24.9210   -11.9680    14.9570 os         1 XCQ      -0.457100
     26 O05        -26.2270   -11.2070    13.3090 o          1 XCQ      -0.463000
     27 O15        -21.9270    -7.8930    10.8040 o          1 XCQ      -0.696000
     28 O16        -21.4770    -8.6710     8.7540 o          1 XCQ      -0.696000
     29 O25        -19.6830   -10.4150     3.9680 o          1 XCQ      -0.504000
     30 O26        -21.6540   -11.8350     3.3640 o          1 XCQ      -0.504000
     31 S23        -20.2110   -11.7150     3.5580 s6         1 XCQ       1.064000
     32 CL1        -22.4000   -14.2380     5.5990 cl         1 XCQ      -0.233000
     33 H013       -22.9640   -10.7720    16.2420 hc         1 XCQ       0.044367
     34 H012       -22.4300   -12.3890    15.7440 hc         1 XCQ       0.044367
     35 H011       -21.7600   -10.9550    14.9670 hc         1 XCQ       0.044367
     36 H021       -23.9780   -10.3890    14.0260 h1         1 XCQ       0.061700
     37 H061       -27.2310   -12.2090    16.0930 hc         1 XCQ       0.062700
     38 H062       -28.1370   -12.2870    14.5840 hc         1 XCQ       0.062700
     39 H072       -26.8790   -14.4100    13.9950 hc         1 XCQ       0.062200
     40 H071       -26.0840   -14.3480    15.5610 hc         1 XCQ       0.062200
     41 H082       -28.2750   -14.4690    16.7030 h1         1 XCQ       0.023700
     42 H081       -29.1010   -14.4770    15.1550 h1         1 XCQ       0.023700
     43 H191       -19.5680   -10.6420     8.7760 ha         1 XCQ       0.139000
     44 H201       -18.6490   -11.3250     6.6170 ha         1 XCQ       0.110000
     45 H221       -20.0020   -13.9260     4.3940 h1         1 XCQ       0.088700
     46 H222       -18.6000   -12.9200     4.8020 h1         1 XCQ       0.088700
     47 H242       -18.3110   -12.2030     2.2180 h1         1 XCQ       0.093700
     48 H243       -19.7150   -13.2220     1.7900 h1         1 XCQ       0.093700
     49 H241       -19.6660   -11.5120     1.2860 h1         1 XCQ       0.093700
     50 H291       -22.9970   -13.1060     8.0750 ha         1 XCQ       0.130000
     51 H311       -22.1900   -14.3800    10.0510 ha         1 XCQ       0.107000
     52 H321       -23.1180   -15.4560    12.0640 ha         1 XCQ       0.093000
     53 H331       -23.8420   -14.1350    13.9910 ha         1 XCQ       0.099000
     54 H092       -28.7380   -16.6900    16.1190 hn         1 XCQ       0.390000
     55 H091       -27.9950   -16.5640    14.6930 hn         1 XCQ       0.390000
     56 H121       -22.7730    -9.5290    12.2910 hn         1 XCQ       0.370000
     57 C04        -26.0900   -11.8280    14.3320 c          1 XCQ       0.592100
@<TRIPOS>BOND
     1     1     2 ar  
     2     1     4 1   
     3     1    22 ar  
     4     2    19 ar  
     5     2    24 1   
     6     3     4 1   
     7     3    33 1   
     8     3    34 1   
     9     3    35 1   
    10     4    25 1   
    11     4    36 1   
    12     5     6 1   
    13     5    37 1   
    14     5    38 1   
    15     5    57 1   
    16     6     7 1   
    17     6    39 1   
    18     6    40 1   
    19     7    23 1   
    20     7    41 1   
    21     7    42 1   
    22     8     9 1   
    23     8    10 2   
    24     8    24 1   
    25     9    27 1   
    26     9    28 1   
    27    10    11 1   
    28    10    19 1   
    29    11    12 ar  
    30    11    18 ar  
    31    12    13 ar  
    32    12    43 1   
    33    13    14 ar  
    34    13    44 1   
    35    14    15 1   
    36    14    17 ar  
    37    15    31 1   
    38    15    45 1   
    39    15    46 1   
    40    16    31 1   
    41    16    47 1   
    42    16    48 1   
    43    16    49 1   
    44    17    18 ar  
    45    17    32 1   
    46    18    50 1   
    47    19    20 ar  
    48    20    21 ar  
    49    20    51 1   
    50    21    22 ar  
    51    21    52 1   
    52    22    53 1   
    53    23    54 1   
    54    23    55 1   
    55    24    56 1   
    56    25    57 1   
    57    26    57 2   
    58    29    31 2   
    59    30    31 2   
@<TRIPOS>SUBSTRUCTURE
     1 XCQ         1 TEMP              0 ****  ****    0 ROOT
