@<TRIPOS>MOLECULE
XCW
   59    62     1     0     0
SMALL
No Charge or Current Charge


@<TRIPOS>ATOM
      1 C1          -8.6090    57.1100    30.2210 c3         1 XCW       0.094300
      2 C11         -6.5920    55.3190    23.4260 c3         1 XCW       0.038700
      3 C15         -3.5490    55.3200    25.7420 cc         1 XCW      -0.227600
      4 C16         -3.4870    54.0150    26.1890 cd         1 XCW      -0.124000
      5 C17         -2.3780    53.8820    27.0490 cd         1 XCW       0.044000
      6 C19         -1.7450    55.0880    27.1450 cc         1 XCW       0.038000
      7 C22         -6.9630    54.0490    22.5810 c6         1 XCW      -0.066700
      8 C23         -8.0990    54.3170    21.5470 c6         1 XCW      -0.073900
      9 C24         -8.4390    53.0550    20.7160 c6         1 XCW      -0.073900
     10 C25         -7.1870    52.4940    20.0050 c6         1 XCW      -0.075400
     11 C26         -6.0640    52.1990    21.0240 c6         1 XCW      -0.073900
     12 C27         -5.7130    53.4600    21.8520 c6         1 XCW      -0.073900
     13 C28         -8.4890    56.2660    27.8850 c          1 XCW       0.560000
     14 C3         -10.3410    57.8470    28.5620 ca         1 XCW      -0.061000
     15 C30        -12.3760    58.2060    27.2430 ca         1 XCW      -0.103000
     16 C31        -12.4620    59.5240    27.7180 ca         1 XCW      -0.107000
     17 C32        -11.4650    60.0230    28.5730 ca         1 XCW      -0.097000
     18 C33        -10.3990    59.1960    28.9730 ca         1 XCW      -0.116000
     19 C4         -11.3020    57.3900    27.6330 ca         1 XCW       0.078100
     20 C6         -10.3130    55.7630    26.1230 c3         1 XCW       0.156600
     21 C7          -8.9220    56.3890    26.3980 c3         1 XCW      -0.008300
     22 N12         -5.5160    54.9970    24.4000 ns         1 XCW      -0.508900
     23 N2          -9.1660    57.0580    28.8490 n          1 XCW      -0.220400
     24 N21         -2.4610    55.9740    26.3430 na         1 XCW      -0.049000
     25 N8          -7.8830    55.8130    25.5070 ns         1 XCW      -0.487900
     26 O14         -4.5580    57.0590    24.4720 o          1 XCW      -0.595100
     27 O5         -11.2350    56.1020    27.1700 os         1 XCW      -0.347100
     28 Cl18        -1.9470    52.3920    27.8260 cl         1 XCW      -0.151000
     29 Cl20        -0.3280    55.4880    28.0680 cl         1 XCW      -0.116000
     30 H36         -9.3280    57.5750    30.9070 h1         1 XCW       0.048033
     31 H34         -8.3980    56.0950    30.5810 h1         1 XCW       0.048033
     32 H35         -7.6810    57.6950    30.2200 h1         1 XCW       0.048033
     33 H41         -6.2030    56.0710    22.7270 h1         1 XCW       0.098700
     34 H43         -4.1670    53.2080    25.9360 ha         1 XCW       0.141000
     35 H45         -7.3290    53.3000    23.2980 hc         1 XCW       0.044700
     36 H47         -7.8060    55.1340    20.8730 hc         1 XCW       0.048450
     37 H46         -9.0140    54.6450    22.0570 hc         1 XCW       0.048450
     38 H49         -9.2120    53.2960    19.9730 hc         1 XCW       0.040700
     39 H48         -8.8680    52.2850    21.3720 hc         1 XCW       0.040700
     40 H50         -6.8300    53.2140    19.2550 hc         1 XCW       0.042700
     41 H51         -7.4460    51.5760    19.4590 hc         1 XCW       0.042700
     42 H53         -6.3770    51.3890    21.6980 hc         1 XCW       0.040700
     43 H52         -5.1690    51.8390    20.4980 hc         1 XCW       0.040700
     44 H55         -4.9300    53.1960    22.5750 hc         1 XCW       0.048450
     45 H54         -5.2770    54.2220    21.1910 hc         1 XCW       0.048450
     46 H56        -13.1330    57.8200    26.5640 ha         1 XCW       0.129000
     47 H57        -13.2870    60.1640    27.4110 ha         1 XCW       0.120000
     48 H58        -11.5110    61.0540    28.9180 ha         1 XCW       0.120000
     49 H59         -9.6200    59.6130    29.6080 ha         1 XCW       0.125000
     50 H38        -10.6850    56.1260    25.1560 h1         1 XCW       0.060700
     51 H37        -10.2170    54.6720    26.0550 h1         1 XCW       0.060700
     52 H39         -8.9860    57.4640    26.1890 h1         1 XCW       0.111700
     53 H42         -5.4140    54.0410    24.7150 hn         1 XCW       0.325500
     54 H44         -2.2250    56.9530    26.2150 hn         1 XCW       0.384000
     55 H40         -7.1560    55.2400    25.9250 hn         1 XCW       0.326500
     56 O29         -7.5470    55.5450    28.2040 o          1 XCW      -0.544000
     57 C9          -7.8010    56.0040    24.1410 c          1 XCW       0.603100
     58 C13         -4.5600    55.8890    24.8230 c          1 XCW       0.641700
     59 O10         -8.5920    56.7320    23.5570 o          1 XCW      -0.584100
@<TRIPOS>BOND
     1     1    23 1   
     2     1    30 1   
     3     1    31 1   
     4     1    32 1   
     5     2     7 1   
     6     2    22 1   
     7     2    33 1   
     8     2    57 1   
     9     3     4 2   
    10     3    24 1   
    11     3    58 1   
    12     4     5 1   
    13     4    34 1   
    14     5     6 2   
    15     5    28 1   
    16     6    24 1   
    17     6    29 1   
    18     7     8 1   
    19     7    12 1   
    20     7    35 1   
    21     8     9 1   
    22     8    36 1   
    23     8    37 1   
    24     9    10 1   
    25     9    38 1   
    26     9    39 1   
    27    10    11 1   
    28    10    40 1   
    29    10    41 1   
    30    11    12 1   
    31    11    42 1   
    32    11    43 1   
    33    12    44 1   
    34    12    45 1   
    35    13    21 1   
    36    13    23 1   
    37    13    56 2   
    38    14    18 ar  
    39    14    19 ar  
    40    14    23 1   
    41    15    16 ar  
    42    15    19 ar  
    43    15    46 1   
    44    16    17 ar  
    45    16    47 1   
    46    17    18 ar  
    47    17    48 1   
    48    18    49 1   
    49    19    27 1   
    50    20    21 1   
    51    20    27 1   
    52    20    50 1   
    53    20    51 1   
    54    21    25 1   
    55    21    52 1   
    56    22    53 1   
    57    22    58 1   
    58    24    54 1   
    59    25    55 1   
    60    25    57 1   
    61    26    58 2   
    62    57    59 2   
@<TRIPOS>SUBSTRUCTURE
     1 XCW         1 TEMP              0 ****  ****    0 ROOT
