@<TRIPOS>MOLECULE
XCX
   65    67     1     0     0
SMALL
No Charge or Current Charge


@<TRIPOS>ATOM
      1 N1V         -1.4080     2.7090     0.1820 nc         1 XCX      -0.654100
      2 N2E         -1.8680     0.4420    -0.4840 nh         1 XCX      -0.746600
      3 CAA         -8.3850    -5.6130     0.7900 c3         1 XCX      -0.088100
      4 CAB          8.0000    -2.2360     0.2240 c3         1 XCX      -0.075600
      5 CAC          7.2820    -0.1390    -0.9980 c3         1 XCX      -0.075600
      6 OAD          5.9000    -0.8850     2.3260 o          1 XCX      -0.709000
      7 OAE          7.4770     0.4800     1.8240 o          1 XCX      -0.709000
      8 CAF         -3.0330     6.0820     0.5480 ca         1 XCX      -0.118000
      9 CAG         -4.3290     5.7150     0.1070 ca         1 XCX      -0.127000
     10 CAH          2.2200    -1.6930    -1.4320 ca         1 XCX      -0.073500
     11 CAI          2.8110     0.4680    -0.4940 ca         1 XCX      -0.073500
     12 CAJ          3.5120    -2.1660    -1.1450 ca         1 XCX      -0.180000
     13 CAK          4.1030    -0.0060    -0.2070 ca         1 XCX      -0.180000
     14 CAL         -1.9920     5.1250     0.6020 ca         1 XCX      -0.075000
     15 CAM         -4.5970     4.3870    -0.2840 ca         1 XCX      -0.086000
     16 CAN         -7.3800    -4.5710     1.3150 c3         1 XCX      -0.075400
     17 CAO         -6.5340    -3.9280     0.1940 c3         1 XCX      -0.075400
     18 CAP         -5.5260    -2.8830     0.7210 c3         1 XCX      -0.074400
     19 CAQ         -4.6810    -2.2410    -0.4010 c3         1 XCX      -0.072400
     20 CAR         -3.6730    -1.1960     0.1270 c3         1 XCX      -0.101400
     21 CAS          0.4640     0.1450    -1.4120 c3         1 XCX      -0.030100
     22 CAT         -2.8300    -0.5530    -0.9920 c3         1 XCX       0.238800
     23 CAU         -0.4910    -0.0280    -0.2130 c3         1 XCX       0.232800
     24 OAW          5.7160    -1.8800    -0.2960 os         1 XCX      -0.347100
     25 OAX         -3.5250     2.1750    -0.5240 os         1 XCX      -0.317700
     26 CAY          6.7640    -0.4790     1.5570 c          1 XCX       0.706000
     27 CAZ          1.8650    -0.3710    -1.1100 ca         1 XCX      -0.172300
     28 CBA          4.4650    -1.3310    -0.5380 ca         1 XCX       0.219100
     29 CBB         -2.2460     1.7640    -0.2740 cd         1 XCX       0.784500
     30 CBC         -2.2720     3.8080     0.2100 ca         1 XCX       0.112400
     31 CBD         -3.5370     3.4780    -0.2140 ca         1 XCX       0.001100
     32 CBF          6.9030    -1.1460     0.1300 c3         1 XCX       0.037000
     33 HAA         -9.0890    -5.1540     0.0860 hc         1 XCX       0.029367
     34 HAAA        -7.8650    -6.4310     0.2770 hc         1 XCX       0.029367
     35 HAAB        -8.9610    -6.0410     1.6200 hc         1 XCX       0.029367
     36 HAB          8.9640    -1.7940     0.5050 hc         1 XCX       0.027700
     37 HABA         7.7390    -2.9840     0.9820 hc         1 XCX       0.027700
     38 HABB         8.1290    -2.7490    -0.7360 hc         1 XCX       0.027700
     39 HAC          7.2530    -0.6270    -1.9800 hc         1 XCX       0.027700
     40 HACA         6.6100     0.7240    -1.0270 hc         1 XCX       0.027700
     41 HACB         8.2980     0.2450    -0.8480 hc         1 XCX       0.027700
     42 HAF         -2.8350     7.1090     0.8480 ha         1 XCX       0.108000
     43 HAG         -5.1200     6.4610     0.0710 ha         1 XCX       0.107000
     44 HAH          1.4970    -2.3560    -1.9030 ha         1 XCX       0.093500
     45 HAI          2.5450     1.4900    -0.2320 ha         1 XCX       0.093500
     46 HAJ          3.7800    -3.1880    -1.3970 ha         1 XCX       0.130000
     47 HAK          4.7990     0.6670     0.2790 ha         1 XCX       0.130000
     48 HAL         -0.9960     5.4010     0.9390 ha         1 XCX       0.133000
     49 HAM         -5.5830     4.0810    -0.6260 ha         1 XCX       0.122000
     50 HAN         -7.9270    -3.7870     1.8530 hc         1 XCX       0.037200
     51 HANA        -6.7140    -5.0520     2.0430 hc         1 XCX       0.037200
     52 HAO         -5.9900    -4.7160    -0.3420 hc         1 XCX       0.036200
     53 HAOA        -7.2030    -3.4500    -0.5320 hc         1 XCX       0.036200
     54 HAP         -6.0710    -2.0960     1.2570 hc         1 XCX       0.040700
     55 HAPA        -4.8570    -3.3620     1.4470 hc         1 XCX       0.040700
     56 HAQ         -4.1360    -3.0280    -0.9370 hc         1 XCX       0.036200
     57 HAQA        -5.3500    -1.7620    -1.1270 hc         1 XCX       0.036200
     58 HAR         -4.2170    -0.4080     0.6630 hc         1 XCX       0.053200
     59 HARA        -3.0020    -1.6730     0.8510 hc         1 XCX       0.053200
     60 HAS          0.0460    -0.3800    -2.2800 hc         1 XCX       0.042200
     61 HASA         0.5040     1.2060    -1.6870 hc         1 XCX       0.042200
     62 HAT         -3.5040    -0.0840    -1.7220 h1         1 XCX       0.053200
     63 HATA        -2.2940    -1.3480    -1.5280 h1         1 XCX       0.053200
     64 HAU         -0.0700     0.5030     0.6510 h1         1 XCX       0.068200
     65 HAUA        -0.5100    -1.0920     0.0610 h1         1 XCX       0.068200
@<TRIPOS>BOND
     1     1    29 2   
     2     1    30 1   
     3     2    22 1   
     4     2    23 1   
     5     2    29 1   
     6     3    16 1   
     7     3    33 1   
     8     3    34 1   
     9     3    35 1   
    10     4    32 1   
    11     4    36 1   
    12     4    37 1   
    13     4    38 1   
    14     5    32 1   
    15     5    39 1   
    16     5    40 1   
    17     5    41 1   
    18     6    26 1   
    19     7    26 1   
    20     8     9 ar  
    21     8    14 ar  
    22     8    42 1   
    23     9    15 ar  
    24     9    43 1   
    25    10    12 ar  
    26    10    27 ar  
    27    10    44 1   
    28    11    13 ar  
    29    11    27 ar  
    30    11    45 1   
    31    12    28 ar  
    32    12    46 1   
    33    13    28 ar  
    34    13    47 1   
    35    14    30 ar  
    36    14    48 1   
    37    15    31 ar  
    38    15    49 1   
    39    16    17 1   
    40    16    50 1   
    41    16    51 1   
    42    17    18 1   
    43    17    52 1   
    44    17    53 1   
    45    18    19 1   
    46    18    54 1   
    47    18    55 1   
    48    19    20 1   
    49    19    56 1   
    50    19    57 1   
    51    20    22 1   
    52    20    58 1   
    53    20    59 1   
    54    21    23 1   
    55    21    27 1   
    56    21    60 1   
    57    21    61 1   
    58    22    62 1   
    59    22    63 1   
    60    23    64 1   
    61    23    65 1   
    62    24    28 1   
    63    24    32 1   
    64    25    29 1   
    65    25    31 1   
    66    26    32 1   
    67    30    31 ar  
@<TRIPOS>SUBSTRUCTURE
     1 XCX         1 TEMP              0 ****  ****    0 ROOT
