@<TRIPOS>MOLECULE
XCX
   65    67     1     0     0
SMALL
bcc


@<TRIPOS>ATOM
      1 N1V         -1.3370     2.6950     0.0330 nc         1 XCX      -0.654100
      2 N2E         -1.8690     0.4610    -0.5150 nh         1 XCX      -0.746600
      3 CAA         -8.1430    -5.6410     0.9010 c3         1 XCX      -0.088100
      4 CAB          7.7060    -2.2870     0.2730 c3         1 XCX      -0.075600
      5 CAC          7.2000    -0.0320    -0.6440 c3         1 XCX      -0.075600
      6 OAD          5.4170    -1.6100     2.1630 o          1 XCX      -0.814300
      7 OAE          6.7300     0.1920     2.0990 o          1 XCX      -0.814300
      8 CAF         -2.8880     6.0590     0.3690 ca         1 XCX      -0.136000
      9 CAG         -4.1870     5.6780     0.0330 ca         1 XCX      -0.145000
     10 CAH          2.1820    -1.5280    -1.7160 ca         1 XCX      -0.091500
     11 CAI          2.7090     0.4710    -0.5430 ca         1 XCX      -0.091500
     12 CAJ          3.4490    -2.0180    -1.4560 ca         1 XCX      -0.198000
     13 CAK          3.9850    -0.0050    -0.2670 ca         1 XCX      -0.198000
     14 CAL         -1.8420     5.1420     0.4060 ca         1 XCX      -0.093000
     15 CAM         -4.4930     4.3550    -0.2840 ca         1 XCX      -0.104000
     16 CAN         -7.1210    -4.6380     1.4190 c3         1 XCX      -0.075400
     17 CAO         -6.3770    -3.9220     0.3000 c3         1 XCX      -0.075400
     18 CAP         -5.3530    -2.9130     0.8050 c3         1 XCX      -0.074400
     19 CAQ         -4.6100    -2.2040    -0.3190 c3         1 XCX      -0.072400
     20 CAR         -3.5980    -1.1840     0.1860 c3         1 XCX      -0.101400
     21 CAS          0.3940     0.2450    -1.5160 c3         1 XCX      -0.030100
     22 CAT         -2.8630    -0.5030    -0.9610 c3         1 XCX       0.238800
     23 CAU         -0.5040     0.0140    -0.2990 c3         1 XCX       0.232800
     24 OAW          5.5730    -1.8390    -0.5510 os         1 XCX      -0.323900
     25 OAX         -3.4420     2.1320    -0.5010 os         1 XCX      -0.317700
     26 CAY          6.2060    -0.8270     1.6100 c          1 XCX       0.916600
     27 CAZ          1.7830    -0.2700    -1.2700 ca         1 XCX      -0.172300
     28 CBA          4.3730    -1.2640    -0.7260 ca         1 XCX       0.219100
     29 CBB         -2.1560     1.7470    -0.3180 cd         1 XCX       0.784500
     30 CBC         -2.1330     3.8200     0.0940 ca         1 XCX       0.112400
     31 CBD         -3.4400     3.4730    -0.2390 ca         1 XCX       0.001100
     32 CBF          6.6410    -1.1990     0.1620 c3         1 XCX       0.013800
     33 HAA         -8.8980    -5.1520     0.2820 hc         1 XCX       0.029367
     34 HAAA        -7.6670    -6.4100     0.2890 hc         1 XCX       0.029367
     35 HAAB        -8.6620    -6.1440     1.7180 hc         1 XCX       0.029367
     36 HAB          8.5700    -1.9120     0.8220 hc         1 XCX       0.027700
     37 HABA         7.3250    -3.1610     0.8030 hc         1 XCX       0.027700
     38 HABB         8.0480    -2.6020    -0.7140 hc         1 XCX       0.027700
     39 HAC          7.4530    -0.3600    -1.6540 hc         1 XCX       0.027700
     40 HACA         6.5150     0.8100    -0.7270 hc         1 XCX       0.027700
     41 HACB         8.1130     0.3370    -0.1790 hc         1 XCX       0.027700
     42 HAF         -2.6880     7.0960     0.6050 ha         1 XCX       0.126000
     43 HAG         -4.9730     6.4210     0.0150 ha         1 XCX       0.125000
     44 HAH          1.4910    -2.1380    -2.2880 ha         1 XCX       0.111500
     45 HAI          2.4360     1.4550    -0.1770 ha         1 XCX       0.111500
     46 HAJ          3.7370    -2.9960    -1.8210 ha         1 XCX       0.148000
     47 HAK          4.6530     0.6250     0.3010 ha         1 XCX       0.148000
     48 HAL         -0.8380     5.4480     0.6680 ha         1 XCX       0.151000
     49 HAM         -5.4970     4.0470    -0.5450 ha         1 XCX       0.140000
     50 HAN         -7.6220    -3.8990     2.0520 hc         1 XCX       0.037200
     51 HANA        -6.4000    -5.1500     2.0630 hc         1 XCX       0.037200
     52 HAO         -5.8750    -4.6620    -0.3330 hc         1 XCX       0.036200
     53 HAOA        -7.1000    -3.4120    -0.3470 hc         1 XCX       0.036200
     54 HAP         -5.8560    -2.1700     1.4340 hc         1 XCX       0.040700
     55 HAPA        -4.6310    -3.4210     1.4540 hc         1 XCX       0.040700
     56 HAQ         -4.1000    -2.9470    -0.9420 hc         1 XCX       0.036200
     57 HAQA        -5.3330    -1.7040    -0.9730 hc         1 XCX       0.036200
     58 HAR         -4.1070    -0.4310     0.7940 hc         1 XCX       0.053200
     59 HARA        -2.8720    -1.6790     0.8410 hc         1 XCX       0.053200
     60 HAS         -0.0420    -0.2500    -2.3870 hc         1 XCX       0.042200
     61 HASA         0.4170     1.3150    -1.7340 hc         1 XCX       0.042200
     62 HAT         -3.5740    -0.0210    -1.6330 h1         1 XCX       0.053200
     63 HATA        -2.3400    -1.2500    -1.5610 h1         1 XCX       0.053200
     64 HAU         -0.0900     0.5250     0.5710 h1         1 XCX       0.068200
     65 HAUA        -0.5400    -1.0490    -0.0560 h1         1 XCX       0.068200
@<TRIPOS>BOND
     1     1    29 2   
     2     1    30 1   
     3     2    22 1   
     4     2    23 1   
     5     2    29 1   
     6     3    16 1   
     7     3    33 1   
     8     3    34 1   
     9     3    35 1   
    10     4    32 1   
    11     4    36 1   
    12     4    37 1   
    13     4    38 1   
    14     5    32 1   
    15     5    39 1   
    16     5    40 1   
    17     5    41 1   
    18     6    26 1   
    19     7    26 1   
    20     8     9 ar  
    21     8    14 ar  
    22     8    42 1   
    23     9    15 ar  
    24     9    43 1   
    25    10    12 ar  
    26    10    27 ar  
    27    10    44 1   
    28    11    13 ar  
    29    11    27 ar  
    30    11    45 1   
    31    12    28 ar  
    32    12    46 1   
    33    13    28 ar  
    34    13    47 1   
    35    14    30 ar  
    36    14    48 1   
    37    15    31 ar  
    38    15    49 1   
    39    16    17 1   
    40    16    50 1   
    41    16    51 1   
    42    17    18 1   
    43    17    52 1   
    44    17    53 1   
    45    18    19 1   
    46    18    54 1   
    47    18    55 1   
    48    19    20 1   
    49    19    56 1   
    50    19    57 1   
    51    20    22 1   
    52    20    58 1   
    53    20    59 1   
    54    21    23 1   
    55    21    27 1   
    56    21    60 1   
    57    21    61 1   
    58    22    62 1   
    59    22    63 1   
    60    23    64 1   
    61    23    65 1   
    62    24    28 1   
    63    24    32 1   
    64    25    29 1   
    65    25    31 1   
    66    26    32 1   
    67    30    31 ar  
@<TRIPOS>SUBSTRUCTURE
     1 XCX         1 TEMP              0 ****  ****    0 ROOT
