@<TRIPOS>MOLECULE
XCZ
   18    18     1     0     0
SMALL
No Charge or Current Charge


@<TRIPOS>ATOM
      1 C11         -2.7240    -0.8840    -0.0210 ca         1 XCZ      -0.178000
      2 C10         -1.7350    -1.8830    -0.0230 ca         1 XCZ       0.099900
      3 C2          -2.2990     0.4570    -0.0320 ca         1 XCZ       0.114300
      4 C4          -0.1050    -0.2560    -0.0390 ca         1 XCZ      -0.025100
      5 C1          -3.2890     1.6070    -0.0280 c3         1 XCZ      -0.151400
      6 N9          -0.4220    -1.5740    -0.0320 nb         1 XCZ      -0.110000
      7 N3          -0.9870     0.7740    -0.0400 nb         1 XCZ      -0.103000
      8 N6           2.0450     0.2540    -1.6460 n8         1 XCZ      -1.050100
      9 O7           1.8760     1.5400     0.4090 o          1 XCZ      -0.521500
     10 O8           2.4760    -0.9440     0.4230 o          1 XCZ      -0.521500
     11 S5           1.6580     0.1700    -0.0560 sy         1 XCZ       1.105200
     12 H11         -3.7790    -1.1450    -0.0120 ha         1 XCZ       0.136000
     13 H10         -1.9930    -2.9400    -0.0160 h4         1 XCZ       0.031100
     14 H11C        -3.4250     2.0000     0.9870 hc         1 XCZ       0.060367
     15 H12C        -2.9470     2.4320    -0.6640 hc         1 XCZ       0.060367
     16 H13C        -4.2710     1.2900    -0.3990 hc         1 XCZ       0.060367
     17 H61          2.4850     1.1720    -1.6770 hn         1 XCZ       0.496500
     18 H62          2.8530    -0.3650    -1.6680 hn         1 XCZ       0.496500
@<TRIPOS>BOND
     1     1     2 ar  
     2     1     3 ar  
     3     1    12 1   
     4     2     6 ar  
     5     2    13 1   
     6     3     5 1   
     7     3     7 ar  
     8     4     6 ar  
     9     4     7 ar  
    10     4    11 1   
    11     5    14 1   
    12     5    15 1   
    13     5    16 1   
    14     8    11 1   
    15     8    17 1   
    16     8    18 1   
    17     9    11 2   
    18    10    11 2   
@<TRIPOS>SUBSTRUCTURE
     1 XCZ         1 TEMP              0 ****  ****    0 ROOT
