@<TRIPOS>MOLECULE
XD1
   27    27     1     0     0
SMALL
abcg2


@<TRIPOS>ATOM
      1 C            2.6900    -0.4590     0.7880 c          1 XD1       0.592900
      2 N            3.1190     1.1350    -0.9880 n8         1 XD1      -0.993200
      3 O            3.6630    -1.0960     0.4770 o          1 XD1      -0.521100
      4 CA           2.2650     0.8320     0.1340 c3         1 XD1       0.042500
      5 CB           0.7660     0.8010    -0.1930 c5         1 XD1       0.338500
      6 OAE         -3.5420     1.1390     0.1350 o          1 XD1      -0.716000
      7 OAF         -1.8030     2.1000    -0.8710 o          1 XD1      -0.716000
      8 NAH         -0.0970     0.8610     0.9490 n7         1 XD1      -0.806400
      9 SAI          0.3340    -0.7570    -1.1270 ss         1 XD1      -0.627000
     10 CAJ         -2.3250     1.2700    -0.1030 c          1 XD1       0.735000
     11 CAM         -1.3980     0.2860     0.6430 c5         1 XD1       0.028500
     12 CAN         -1.1780    -1.0580    -0.1260 c5         1 XD1       0.133000
     13 HA           2.0520    -0.7910     1.6250 h4         1 XD1      -0.022800
     14 HN           3.0540     0.4110    -1.6930 hn         1 XD1       0.407500
     15 HNA          2.8130     1.9940    -1.4260 hn         1 XD1       0.407500
     16 HAA          2.4000     1.6140     0.8960 h1         1 XD1       0.084700
     17 HB           0.5440     1.6300    -0.8610 h2         1 XD1       0.127700
     18 HAAA        -3.2500    -1.5500    -0.4770 hc         1 XD1       0.035033
     19 HAAB        -2.4850    -0.7210    -1.8360 hc         1 XD1       0.035033
     20 HAAC        -2.1230    -2.4170    -1.5180 hc         1 XD1       0.035033
     21 HAB         -0.6060    -3.0990     0.3580 hc         1 XD1       0.035033
     22 HABA        -0.1360    -1.9340     1.5890 hc         1 XD1       0.035033
     23 HABB        -1.8270    -2.4110     1.4310 hc         1 XD1       0.035033
     24 HNAH         0.3020     0.3520     1.7270 hn         1 XD1       0.377000
     25 HAM         -1.8800     0.0410     1.5930 h1         1 XD1       0.058700
     26 CAA         -2.3260    -1.4540    -1.0470 c3         1 XD1      -0.070600
     27 CAB         -0.9160    -2.1870     0.8690 c3         1 XD1      -0.070600
@<TRIPOS>BOND
     1     1     3 2   
     2     1     4 1   
     3     1    13 1   
     4     2     4 1   
     5     2    14 1   
     6     2    15 1   
     7     4     5 1   
     8     4    16 1   
     9     5     8 1   
    10     5     9 1   
    11     5    17 1   
    12     6    10 1   
    13     7    10 1   
    14     8    11 1   
    15     8    24 1   
    16     9    12 1   
    17    10    11 1   
    18    11    12 1   
    19    11    25 1   
    20    12    26 1   
    21    12    27 1   
    22    18    26 1   
    23    19    26 1   
    24    20    26 1   
    25    21    27 1   
    26    22    27 1   
    27    23    27 1   
@<TRIPOS>SUBSTRUCTURE
     1 XD1         1 TEMP              0 ****  ****    0 ROOT
