@<TRIPOS>MOLECULE
XD1
   27    27     1     0     0
SMALL
No Charge or Current Charge


@<TRIPOS>ATOM
      1 C            3.0700     0.2690     1.0610 c          1 XD1       0.592900
      2 N            2.9520     1.0080    -1.4460 n8         1 XD1      -0.993200
      3 O            4.0650    -0.4320     0.8770 o          1 XD1      -0.521100
      4 CA           2.3020     1.0300    -0.0670 c3         1 XD1       0.042500
      5 CB           0.8010     0.5820    -0.1170 c5         1 XD1       0.338500
      6 OAE         -3.4950     1.1360     0.7090 o          1 XD1      -0.716000
      7 OAF         -1.9540     2.0630    -0.4380 o          1 XD1      -0.716000
      8 NAH          0.1110     0.5870     1.1800 n7         1 XD1      -0.806400
      9 SAI          0.6190    -1.2050    -0.5180 ss         1 XD1      -0.627000
     10 CAJ         -2.3380     1.1700     0.3090 c          1 XD1       0.735000
     11 CAM         -1.3050     0.1150     0.9020 c5         1 XD1       0.028500
     12 CAN         -1.1770    -1.1620    -0.0250 c5         1 XD1       0.133000
     13 HA           2.6700     0.4120     2.0900 h4         1 XD1      -0.022800
     14 HN           2.9670     0.0340    -1.7800 hn         1 XD1       0.407500
     15 HNA          2.3480     1.4820    -2.1290 hn         1 XD1       0.407500
     16 HAA          2.2880     2.0770     0.2660 h1         1 XD1       0.084700
     17 HB           0.2730     1.1920    -0.8650 h2         1 XD1       0.127700
     18 HAAA        -3.0990    -1.1340    -1.1060 hc         1 XD1       0.035033
     19 HAAB        -1.7870    -0.3020    -1.9640 hc         1 XD1       0.035033
     20 HAAC        -1.8380    -2.0640    -1.9210 hc         1 XD1       0.035033
     21 HAB         -1.2920    -3.3550     0.1430 hc         1 XD1       0.035033
     22 HABA        -0.8520    -2.5440     1.6530 hc         1 XD1       0.035033
     23 HABB        -2.5260    -2.4970     1.0810 hc         1 XD1       0.035033
     24 HNAH         0.5640    -0.1240     1.7580 hn         1 XD1       0.377000
     25 HAM         -1.7510    -0.1810     1.8610 h1         1 XD1       0.058700
     26 CAA         -2.0250    -1.1620    -1.3260 c3         1 XD1      -0.070600
     27 CAB         -1.4790    -2.4650     0.7570 c3         1 XD1      -0.070600
@<TRIPOS>BOND
     1     1     3 2   
     2     1     4 1   
     3     1    13 1   
     4     2     4 1   
     5     2    14 1   
     6     2    15 1   
     7     4     5 1   
     8     4    16 1   
     9     5     8 1   
    10     5     9 1   
    11     5    17 1   
    12     6    10 1   
    13     7    10 1   
    14     8    11 1   
    15     8    24 1   
    16     9    12 1   
    17    10    11 1   
    18    11    12 1   
    19    11    25 1   
    20    12    26 1   
    21    12    27 1   
    22    18    26 1   
    23    19    26 1   
    24    20    26 1   
    25    21    27 1   
    26    22    27 1   
    27    23    27 1   
@<TRIPOS>SUBSTRUCTURE
     1 XD1         1 TEMP              0 ****  ****    0 ROOT
