@<TRIPOS>MOLECULE
XD2
   50    52     1     0     0
SMALL
No Charge or Current Charge


@<TRIPOS>ATOM
      1 CAA         -5.8180     2.4160     2.6400 c3         1 XD2       0.072900
      2 OAB         -3.6420    -2.6270     0.2440 o          1 XD2      -0.690000
      3 OAC          3.2830    -0.5050     2.2790 o          1 XD2      -0.615100
      4 OAE         -1.9900    -3.8450     0.8500 o          1 XD2      -0.690000
      5 OAF          5.5630     1.0720     2.3940 oh         1 XD2      -0.649000
      6 CAG          4.5980     3.5310    -1.8960 ca         1 XD2      -0.107000
      7 CAH          5.7290     2.6990    -1.9540 ca         1 XD2      -0.112000
      8 CAI          3.6690     3.3760    -0.8540 ca         1 XD2      -0.112000
      9 CAJ          5.9290     1.7120    -0.9740 ca         1 XD2      -0.091000
     10 CAK          3.8680     2.3900     0.1270 ca         1 XD2      -0.091000
     11 CAL          2.5580    -2.9660    -1.2530 c          1 XD2       0.576900
     12 CAM         -3.1220     0.0610    -0.8380 c3         1 XD2       0.185800
     13 CAN         -0.6460     0.4940    -1.0280 c6         1 XD2       0.145800
     14 NAO         -7.0940     1.9720    -0.6340 nc         1 XD2      -0.053000
     15 NAP         -5.8770     1.3530    -0.8370 nc         1 XD2      -0.408000
     16 NAQ         -7.2370     2.4210     0.5920 nd         1 XD2      -0.237800
     17 NAR          3.6530    -1.2130     0.1440 ns         1 XD2      -0.468900
     18 NAS         -0.0500    -2.1530     0.0800 nu         1 XD2      -0.804200
     19 SAU          0.9780    -0.2300    -1.4600 ss         1 XD2      -0.503000
     20 CAW          3.9600    -0.4590     1.2580 c          1 XD2       0.574100
     21 CAX         -1.7220    -0.5060    -0.6280 c2         1 XD2      -0.288400
     22 CAY         -1.4080    -1.7390    -0.1160 ce         1 XD2       0.096800
     23 CAZ          5.0000     1.5480     0.0740 ca         1 XD2      -0.109300
     24 CBA         -5.2840     1.4410     0.3300 cd         1 XD2       0.506800
     25 CBB          5.2150     0.4610     1.1290 c3         1 XD2       0.145600
     26 CBC          2.4490    -2.0800     0.0080 c3         1 XD2      -0.017300
     27 CBD          1.1160    -1.2740     0.0330 c6         1 XD2       0.370500
     28 NBE         -6.0810     2.0910     1.2300 na         1 XD2      -0.083700
     29 H1          -4.9350     3.0640     2.7080 h1         1 XD2       0.061367
     30 H2          -6.6810     2.9340     3.0750 h1         1 XD2       0.061367
     31 H3          -5.6330     1.4910     3.2010 h1         1 XD2       0.061367
     32 H6           4.7990     0.8960     2.9930 ho         1 XD2       0.472000
     33 H9           2.7930     4.0190    -0.8080 ha         1 XD2       0.110500
     34 H10          6.8090     1.0740    -1.0310 ha         1 XD2       0.116000
     35 H11          3.1400     2.2810     0.9290 ha         1 XD2       0.116000
     36 H12          1.6790    -3.6160    -1.4600 h4         1 XD2       0.031200
     37 H14         -3.8380    -0.7090    -1.1490 h1         1 XD2       0.094200
     38 H15         -3.1220     0.8220    -1.6300 h1         1 XD2       0.094200
     39 H16         -0.4810     1.1950    -0.1970 h1         1 XD2       0.058200
     40 H17         -0.9700     1.0880    -1.8940 h1         1 XD2       0.058200
     41 H18          4.2570    -1.1020    -0.6650 hn         1 XD2       0.333500
     42 H20          6.0340    -0.1910     0.7970 h1         1 XD2       0.076700
     43 H21          2.4310    -2.7660     0.8640 h1         1 XD2       0.102700
     44 H22          1.1150    -0.5980     0.9020 h2         1 XD2       0.057700
     45 H5           0.0290    -3.0370     0.5910 hn         1 XD2       0.516000
     46 SAT         -3.6680     0.8550     0.7390 ss         1 XD2      -0.379300
     47 CAV         -2.4370    -2.8100     0.3620 c          1 XD2       0.714200
     48 H7           4.4440     4.2940    -2.6550 ha         1 XD2       0.108000
     49 OAD          3.5400    -2.9830    -1.9930 o          1 XD2      -0.520100
     50 H8           6.4500     2.8190    -2.7600 ha         1 XD2       0.110500
@<TRIPOS>BOND
     1     1    28 1   
     2     1    29 1   
     3     1    30 1   
     4     1    31 1   
     5     2    47 1   
     6     3    20 2   
     7     4    47 1   
     8     5    25 1   
     9     5    32 1   
    10     6     7 ar  
    11     6     8 ar  
    12     6    48 1   
    13     7     9 ar  
    14     7    50 1   
    15     8    10 ar  
    16     8    33 1   
    17     9    23 ar  
    18     9    34 1   
    19    10    23 ar  
    20    10    35 1   
    21    11    26 1   
    22    11    36 1   
    23    11    49 2   
    24    12    21 1   
    25    12    37 1   
    26    12    38 1   
    27    12    46 1   
    28    13    19 1   
    29    13    21 1   
    30    13    39 1   
    31    13    40 1   
    32    14    15 1   
    33    14    16 2   
    34    15    24 2   
    35    16    28 1   
    36    17    20 1   
    37    17    26 1   
    38    17    41 1   
    39    18    22 1   
    40    18    27 1   
    41    18    45 1   
    42    19    27 1   
    43    20    25 1   
    44    21    22 2   
    45    22    47 1   
    46    23    25 1   
    47    24    28 1   
    48    24    46 1   
    49    25    42 1   
    50    26    27 1   
    51    26    43 1   
    52    27    44 1   
@<TRIPOS>SUBSTRUCTURE
     1 XD2         1 TEMP              0 ****  ****    0 ROOT
