@<TRIPOS>MOLECULE
XD2
   50    52     1     0     0
SMALL
abcg2


@<TRIPOS>ATOM
      1 CAA         -5.6330     3.3430     0.9010 c3         1 XD2       0.072900
      2 OAB         -3.4410    -2.5610     1.5300 o          1 XD2      -0.690000
      3 OAC          4.9650    -1.4900     1.0740 o          1 XD2      -0.615100
      4 OAE         -1.5710    -2.5230     2.7350 o          1 XD2      -0.690000
      5 OAF          6.8160    -0.1770    -0.2870 oh         1 XD2      -0.649000
      6 CAG          4.4470     4.1400     0.6760 ca         1 XD2      -0.107000
      7 CAH          4.0520     3.6770    -0.5710 ca         1 XD2      -0.112000
      8 CAI          5.1940     3.3170     1.5110 ca         1 XD2      -0.112000
      9 CAJ          4.4030     2.3960    -0.9790 ca         1 XD2      -0.091000
     10 CAK          5.5410     2.0380     1.1030 ca         1 XD2      -0.091000
     11 CAL          2.3980    -3.1040    -0.2910 c          1 XD2       0.576900
     12 CAM         -3.4120    -0.7490    -0.6830 c3         1 XD2       0.185800
     13 CAN         -1.1010    -0.3970    -1.5860 c6         1 XD2       0.145800
     14 NAO         -7.2790     1.1440    -1.2240 nc         1 XD2      -0.053000
     15 NAP         -6.1360     0.4630    -1.1270 nc         1 XD2      -0.408000
     16 NAQ         -7.2420     2.2140    -0.5400 nd         1 XD2      -0.237800
     17 NAR          3.2820    -0.8150    -0.2750 ns         1 XD2      -0.468900
     18 NAS         -0.0850    -1.8960     0.7260 nu         1 XD2      -0.804200
     19 SAU          0.5270    -1.1670    -1.7530 ss         1 XD2      -0.503000
     20 CAW          4.5530    -0.8140     0.1460 c          1 XD2       0.574100
     21 CAX         -1.9520    -1.0250    -0.5130 c2         1 XD2      -0.288400
     22 CAY         -1.4330    -1.6870     0.5450 ce         1 XD2       0.096800
     23 CAZ          5.1430     1.5660    -0.1450 ca         1 XD2      -0.109300
     24 CBA         -5.3640     1.1720    -0.3340 cd         1 XD2       0.506800
     25 CBB          5.4940     0.1570    -0.5750 c3         1 XD2       0.145600
     26 CBC          2.2900    -1.6960     0.2690 c3         1 XD2      -0.017300
     27 CBD          0.8910    -1.1230     0.0340 c6         1 XD2       0.370500
     28 NBE         -6.0450     2.2620     0.0360 na         1 XD2      -0.083700
     29 H1          -4.7470     3.8290     0.4960 h1         1 XD2       0.061367
     30 H2          -6.4420     4.0640     0.9570 h1         1 XD2       0.061367
     31 H3          -5.4180     2.9650     1.8980 h1         1 XD2       0.061367
     32 H6           6.8080    -0.7410     0.5000 ho         1 XD2       0.472000
     33 H9           5.5090     3.6740     2.4830 ha         1 XD2       0.110500
     34 H10          4.1040     2.0490    -1.9620 ha         1 XD2       0.116000
     35 H11          6.1250     1.4100     1.7650 ha         1 XD2       0.116000
     36 H12          1.6200    -3.7990     0.0630 h4         1 XD2       0.031200
     37 H14         -4.0450    -1.5130    -0.2500 h1         1 XD2       0.094200
     38 H15         -3.6660    -0.6000    -1.7310 h1         1 XD2       0.094200
     39 H16         -0.9680     0.6780    -1.4290 h1         1 XD2       0.058200
     40 H17         -1.5790    -0.5130    -2.5610 h1         1 XD2       0.058200
     41 H18          3.0500    -0.3160    -1.1230 hn         1 XD2       0.333500
     42 H20          5.3290     0.0670    -1.6550 h1         1 XD2       0.076700
     43 H21          2.4270    -1.7750     1.3550 h1         1 XD2       0.102700
     44 H22          0.8870    -0.0690     0.3420 h2         1 XD2       0.057700
     45 H5           0.1230    -2.1380     1.6880 hn         1 XD2       0.516000
     46 SAT         -3.7520     0.8360     0.1910 ss         1 XD2      -0.379300
     47 CAV         -2.2400    -2.3130     1.7030 c          1 XD2       0.714200
     48 H7           4.1790     5.1390     0.9940 ha         1 XD2       0.108000
     49 OAD          3.2690    -3.4510    -1.0420 o          1 XD2      -0.520100
     50 H8           3.4780     4.3130    -1.2310 ha         1 XD2       0.110500
@<TRIPOS>BOND
     1     1    28 1   
     2     1    29 1   
     3     1    30 1   
     4     1    31 1   
     5     2    47 1   
     6     3    20 2   
     7     4    47 1   
     8     5    25 1   
     9     5    32 1   
    10     6     7 ar  
    11     6     8 ar  
    12     6    48 1   
    13     7     9 ar  
    14     7    50 1   
    15     8    10 ar  
    16     8    33 1   
    17     9    23 ar  
    18     9    34 1   
    19    10    23 ar  
    20    10    35 1   
    21    11    26 1   
    22    11    36 1   
    23    11    49 2   
    24    12    21 1   
    25    12    37 1   
    26    12    38 1   
    27    12    46 1   
    28    13    19 1   
    29    13    21 1   
    30    13    39 1   
    31    13    40 1   
    32    14    15 1   
    33    14    16 2   
    34    15    24 2   
    35    16    28 1   
    36    17    20 1   
    37    17    26 1   
    38    17    41 1   
    39    18    22 1   
    40    18    27 1   
    41    18    45 1   
    42    19    27 1   
    43    20    25 1   
    44    21    22 2   
    45    22    47 1   
    46    23    25 1   
    47    24    28 1   
    48    24    46 1   
    49    25    42 1   
    50    26    27 1   
    51    26    43 1   
    52    27    44 1   
@<TRIPOS>SUBSTRUCTURE
     1 XD2         1 TEMP              0 ****  ****    0 ROOT
