@<TRIPOS>MOLECULE
XD3
   40    41     1     0     0
SMALL
abcg2


@<TRIPOS>ATOM
      1 O7           3.8820     2.3140    -0.8610 oh         1 XD3      -0.671000
      2 C11          2.8400     1.4100    -0.5580 c6         1 XD3       0.134300
      3 C            3.4780     0.0470    -0.3280 c6         1 XD3       0.144300
      4 O            4.1040    -0.4420    -1.4890 oh         1 XD3      -0.720000
      5 C10          2.0660     1.8220     0.6870 c6         1 XD3      -0.130400
      6 C3           1.0730     0.7470     1.0960 c6         1 XD3       0.394300
      7 O2           1.7080    -0.4970     1.2320 os         1 XD3      -0.464000
      8 C1           2.4040    -0.9600     0.0880 c6         1 XD3       0.170300
      9 C2           3.0010    -2.3070     0.4400 c3         1 XD3       0.169600
     10 O1           1.9580    -3.2000     0.7570 oh         1 XD3      -0.715000
     11 O3           0.0470     0.7180     0.1530 os         1 XD3      -0.482000
     12 C4          -1.1510     0.0650     0.5340 c6         1 XD3       0.233500
     13 C9          -2.3090     0.8880    -0.0140 c6         1 XD3       0.131300
     14 O6          -2.4240     2.0530     0.7630 oh         1 XD3      -0.712000
     15 C7          -3.5950     0.0540     0.0310 c6         1 XD3       0.134300
     16 C8          -4.7940     0.8190    -0.4830 c3         1 XD3       0.167600
     17 O5          -5.9370     0.0070    -0.3650 oh         1 XD3      -0.641000
     18 O4          -3.4630    -1.1160    -0.7710 os         1 XD3      -0.331100
     19 C6          -2.3120    -1.7980    -0.6100 c2         1 XD3      -0.004900
     20 C5          -1.2270    -1.3350     0.0030 c2         1 XD3      -0.361200
     21 H1           3.5000     3.1010    -1.2600 ho         1 XD3       0.450000
     22 H2           2.1520     1.3230    -1.4100 h1         1 XD3       0.058700
     23 H3           4.2020     0.1460     0.5000 h1         1 XD3       0.049700
     24 H4           4.7290     0.2270    -1.7890 ho         1 XD3       0.521000
     25 H5           2.7670     1.9700     1.5130 hc         1 XD3       0.066200
     26 H6           1.5440     2.7690     0.5320 hc         1 XD3       0.066200
     27 H7           0.6670     0.9630     2.0920 h2         1 XD3       0.074700
     28 H8           1.7090    -1.0950    -0.7530 h1         1 XD3       0.069700
     29 H9           3.5850    -2.6600    -0.4150 h1         1 XD3       0.034700
     30 H10          3.6980    -2.1820     1.2810 h1         1 XD3       0.034700
     31 H11          2.3320    -4.0840     0.8170 ho         1 XD3       0.502000
     32 H12         -1.2280     0.0550     1.6320 h1         1 XD3       0.061700
     33 H13         -2.0920     1.1260    -1.0650 h1         1 XD3       0.057700
     34 H14         -2.7560     2.7690     0.2140 ho         1 XD3       0.506000
     35 H15         -3.7790    -0.2560     1.0710 h1         1 XD3       0.071700
     36 H16         -4.8940     1.7360     0.1070 h1         1 XD3       0.025700
     37 H17         -4.6090     1.1190    -1.5240 h1         1 XD3       0.025700
     38 H18         -6.7030     0.5410    -0.5920 ho         1 XD3       0.443000
     39 H19         -2.3630    -2.7930    -1.0380 h4         1 XD3       0.215000
     40 H20         -0.3780    -1.9950     0.1120 ha         1 XD3       0.219000
@<TRIPOS>BOND
     1     1     2 1   
     2     1    21 1   
     3     2     3 1   
     4     2     5 1   
     5     2    22 1   
     6     3     4 1   
     7     3     8 1   
     8     3    23 1   
     9     4    24 1   
    10     5     6 1   
    11     5    25 1   
    12     5    26 1   
    13     6     7 1   
    14     6    11 1   
    15     6    27 1   
    16     7     8 1   
    17     8     9 1   
    18     8    28 1   
    19     9    10 1   
    20     9    29 1   
    21     9    30 1   
    22    10    31 1   
    23    11    12 1   
    24    12    13 1   
    25    12    20 1   
    26    12    32 1   
    27    13    14 1   
    28    13    15 1   
    29    13    33 1   
    30    14    34 1   
    31    15    16 1   
    32    15    18 1   
    33    15    35 1   
    34    16    17 1   
    35    16    36 1   
    36    16    37 1   
    37    17    38 1   
    38    18    19 1   
    39    19    20 2   
    40    19    39 1   
    41    20    40 1   
@<TRIPOS>SUBSTRUCTURE
     1 XD3         1 TEMP              0 ****  ****    0 ROOT
