@<TRIPOS>MOLECULE
XD3
   40    41     1     0     0
SMALL
No Charge or Current Charge


@<TRIPOS>ATOM
      1 O7           3.9330     2.4970    -0.5980 oh         1 XD3      -0.671000
      2 C11          2.9020     1.5150    -0.4020 c6         1 XD3       0.134300
      3 C            3.5150     0.0850    -0.4080 c6         1 XD3       0.144300
      4 O            4.1700    -0.1530    -1.6680 oh         1 XD3      -0.720000
      5 C10          2.1590     1.7690     0.9300 c6         1 XD3      -0.130400
      6 C3           1.1070     0.6660     1.2000 c6         1 XD3       0.394300
      7 O2           1.7410    -0.6300     1.1510 os         1 XD3      -0.464000
      8 C1           2.3920    -0.9550    -0.1100 c6         1 XD3       0.170300
      9 C2           2.9480    -2.4150    -0.0180 c3         1 XD3       0.169600
     10 O1           1.9440    -3.3970     0.3180 oh         1 XD3      -0.715000
     11 O3           0.0530     0.7390     0.2180 os         1 XD3      -0.482000
     12 C4          -1.2320     0.2170     0.6250 c6         1 XD3       0.233500
     13 C9          -2.3550     0.8440    -0.2480 c6         1 XD3       0.131300
     14 O6          -2.3970     2.2790    -0.0860 oh         1 XD3      -0.712000
     15 C7          -3.6980     0.1540     0.1240 c6         1 XD3       0.134300
     16 C8          -4.9120     0.6920    -0.7000 c3         1 XD3       0.167600
     17 O5          -6.1480     0.0200    -0.3950 oh         1 XD3      -0.641000
     18 O4          -3.6100    -1.2860    -0.0780 os         1 XD3      -0.331100
     19 C6          -2.4300    -1.9430     0.1890 c2         1 XD3      -0.004900
     20 C5          -1.2980    -1.2950     0.5160 c2         1 XD3      -0.361200
     21 H1           3.4950     3.3780    -0.5990 ho         1 XD3       0.450000
     22 H2           2.1680     1.5770    -1.2210 h1         1 XD3       0.058700
     23 H3           4.2530     0.0270     0.4070 h1         1 XD3       0.049700
     24 H4           4.6160     0.7030    -1.8790 ho         1 XD3       0.521000
     25 H5           2.8740     1.7940     1.7640 hc         1 XD3       0.066200
     26 H6           1.6640     2.7490     0.9120 hc         1 XD3       0.066200
     27 H7           0.6880     0.8300     2.2040 h2         1 XD3       0.074700
     28 H8           1.6460    -0.9270    -0.9170 h1         1 XD3       0.069700
     29 H9           3.4070    -2.6690    -0.9830 h1         1 XD3       0.034700
     30 H10          3.7490    -2.4260     0.7340 h1         1 XD3       0.034700
     31 H11          2.4080    -4.2610     0.4140 ho         1 XD3       0.502000
     32 H12         -1.4180     0.5060     1.6710 h1         1 XD3       0.061700
     33 H13         -2.1360     0.6020    -1.2990 h1         1 XD3       0.057700
     34 H14         -1.4640     2.5840    -0.1880 ho         1 XD3       0.506000
     35 H15         -3.8990     0.3370     1.1890 h1         1 XD3       0.071700
     36 H16         -5.0170     1.7670    -0.5010 h1         1 XD3       0.025700
     37 H17         -4.6780     0.5800    -1.7680 h1         1 XD3       0.025700
     38 H18         -6.8330     0.3990    -0.9890 ho         1 XD3       0.443000
     39 H19         -2.4930    -3.0320     0.1010 h4         1 XD3       0.215000
     40 H20         -0.3840    -1.8520     0.7170 ha         1 XD3       0.219000
@<TRIPOS>BOND
     1     1     2 1   
     2     1    21 1   
     3     2     3 1   
     4     2     5 1   
     5     2    22 1   
     6     3     4 1   
     7     3     8 1   
     8     3    23 1   
     9     4    24 1   
    10     5     6 1   
    11     5    25 1   
    12     5    26 1   
    13     6     7 1   
    14     6    11 1   
    15     6    27 1   
    16     7     8 1   
    17     8     9 1   
    18     8    28 1   
    19     9    10 1   
    20     9    29 1   
    21     9    30 1   
    22    10    31 1   
    23    11    12 1   
    24    12    13 1   
    25    12    20 1   
    26    12    32 1   
    27    13    14 1   
    28    13    15 1   
    29    13    33 1   
    30    14    34 1   
    31    15    16 1   
    32    15    18 1   
    33    15    35 1   
    34    16    17 1   
    35    16    36 1   
    36    16    37 1   
    37    17    38 1   
    38    18    19 1   
    39    19    20 2   
    40    19    39 1   
    41    20    40 1   
@<TRIPOS>SUBSTRUCTURE
     1 XD3         1 TEMP              0 ****  ****    0 ROOT
