@<TRIPOS>MOLECULE
XD4
   46    48     1     0     0
SMALL
abcg2


@<TRIPOS>ATOM
      1 O1           0.5250     2.3170     0.1630 o          1 XD4      -0.506000
      2 C3           0.6330     1.1340    -0.0790 c          1 XD4       0.617700
      3 C4           1.9170     0.4160    -0.1350 ca         1 XD4      -0.199600
      4 C10          2.0100    -0.9490    -0.4130 ca         1 XD4      -0.008000
      5 C9           3.2390    -1.5750    -0.4380 ca         1 XD4      -0.213000
      6 C8           4.4200    -0.8610    -0.1880 ca         1 XD4       0.341000
      7 N            5.6310    -1.4860    -0.2580 nv         1 XD4      -1.089000
      8 C6           4.3410     0.5220     0.0880 ca         1 XD4      -0.169300
      9 C7           5.5900     1.3100     0.3490 c3         1 XD4      -0.039800
     10 C5           3.0980     1.1230     0.1090 ca         1 XD4      -0.009000
     11 O           -0.4040     0.3440    -0.3210 os         1 XD4      -0.443100
     12 C2          -1.7190     0.9050    -0.2770 c5         1 XD4       0.180300
     13 C11         -2.2150     1.2020     1.1560 c5         1 XD4      -0.095400
     14 C12         -3.5110     0.3840     1.2540 c5         1 XD4      -0.066700
     15 C13         -3.1610    -0.9000     0.4720 c5         1 XD4      -0.042000
     16 C15         -4.3480    -1.8410     0.2610 c3         1 XD4      -0.076100
     17 C14         -2.0660    -1.7410     1.1310 c3         1 XD4      -0.076100
     18 C16         -4.5380     1.0690     0.3450 c5         1 XD4      -0.078400
     19 C17         -4.0010     0.7420    -1.0690 c5         1 XD4      -0.079400
     20 C1          -2.7420    -0.1170    -0.8070 c5         1 XD4      -0.046000
     21 C           -2.2970    -0.9110    -2.0150 c3         1 XD4      -0.063100
     22 H1           1.1220    -1.5350    -0.6060 ha         1 XD4       0.127000
     23 H2           3.2970    -2.6360    -0.6490 ha         1 XD4       0.113000
     24 H3           5.6320    -2.4920    -0.2300 hn         1 XD4       0.463500
     25 H4           6.4110    -1.0760     0.2280 hn         1 XD4       0.463500
     26 H5           6.3010     1.2220    -0.4770 hc         1 XD4       0.040033
     27 H6           5.3670     2.3660     0.4830 hc         1 XD4       0.040033
     28 H7           6.1060     0.9700     1.2510 hc         1 XD4       0.040033
     29 H8           3.0410     2.1840     0.3210 ha         1 XD4       0.131000
     30 H9          -1.7200     1.7990    -0.9060 h1         1 XD4       0.063700
     31 H10         -1.4800     0.8860     1.8980 hc         1 XD4       0.058700
     32 H11         -2.3860     2.2670     1.3190 hc         1 XD4       0.058700
     33 H12         -3.8520     0.2280     2.2800 hc         1 XD4       0.067700
     34 H13         -5.1990    -1.3930    -0.2490 hc         1 XD4       0.034033
     35 H14         -4.0440    -2.7120    -0.3240 hc         1 XD4       0.034033
     36 H15         -4.7060    -2.2110     1.2240 hc         1 XD4       0.034033
     37 H16         -2.4500    -2.1730     2.0580 hc         1 XD4       0.034033
     38 H17         -1.7790    -2.5760     0.4880 hc         1 XD4       0.034033
     39 H18         -1.1570    -1.2000     1.3790 hc         1 XD4       0.034033
     40 H19         -5.5430     0.6740     0.4950 hc         1 XD4       0.044700
     41 H20         -4.5940     2.1430     0.5360 hc         1 XD4       0.044700
     42 H21         -4.7290     0.1820    -1.6590 hc         1 XD4       0.045700
     43 H22         -3.7580     1.6360    -1.6490 hc         1 XD4       0.045700
     44 H23         -1.9570    -0.2530    -2.8180 hc         1 XD4       0.037033
     45 H24         -1.4820    -1.5990    -1.7880 hc         1 XD4       0.037033
     46 H25         -3.1270    -1.4980    -2.4120 hc         1 XD4       0.037033
@<TRIPOS>BOND
     1     1     2 2   
     2     2     3 1   
     3     2    11 1   
     4     3     4 ar  
     5     3    10 ar  
     6     4     5 ar  
     7     4    22 1   
     8     5     6 ar  
     9     5    23 1   
    10     6     7 1   
    11     6     8 ar  
    12     7    24 1   
    13     7    25 1   
    14     8     9 1   
    15     8    10 ar  
    16     9    26 1   
    17     9    27 1   
    18     9    28 1   
    19    10    29 1   
    20    11    12 1   
    21    12    13 1   
    22    12    20 1   
    23    12    30 1   
    24    13    14 1   
    25    13    31 1   
    26    13    32 1   
    27    14    15 1   
    28    14    18 1   
    29    14    33 1   
    30    15    16 1   
    31    15    17 1   
    32    15    20 1   
    33    16    34 1   
    34    16    35 1   
    35    16    36 1   
    36    17    37 1   
    37    17    38 1   
    38    17    39 1   
    39    18    19 1   
    40    18    40 1   
    41    18    41 1   
    42    19    20 1   
    43    19    42 1   
    44    19    43 1   
    45    20    21 1   
    46    21    44 1   
    47    21    45 1   
    48    21    46 1   
@<TRIPOS>SUBSTRUCTURE
     1 XD4         1 TEMP              0 ****  ****    0 ROOT
