@<TRIPOS>MOLECULE
XD4
   46    48     1     0     0
SMALL
No Charge or Current Charge


@<TRIPOS>ATOM
      1 O1           0.5340     2.3560     0.0660 o          1 XD4      -0.506000
      2 C3           0.6370     1.1520    -0.1370 c          1 XD4       0.617700
      3 C4           1.9690     0.4400    -0.1310 ca         1 XD4      -0.199600
      4 C10          2.0560    -0.9530    -0.3450 ca         1 XD4      -0.008000
      5 C9           3.3060    -1.5920    -0.3320 ca         1 XD4      -0.213000
      6 C8           4.4770    -0.8600    -0.1070 ca         1 XD4       0.341000
      7 N            5.6750    -1.5230    -0.1010 nv         1 XD4      -1.089000
      8 C6           4.4110     0.5320     0.1100 ca         1 XD4      -0.169300
      9 C7           5.6700     1.3630     0.3590 c3         1 XD4      -0.039800
     10 C5           3.1540     1.1710     0.0970 ca         1 XD4      -0.009000
     11 O           -0.4230     0.3150    -0.3980 os         1 XD4      -0.443100
     12 C2          -1.7360     0.9340    -0.3560 c5         1 XD4       0.180300
     13 C11         -2.1510     1.1920     1.1350 c5         1 XD4      -0.095400
     14 C12         -3.4790     0.3670     1.2730 c5         1 XD4      -0.066700
     15 C13         -3.1950    -0.9290     0.4460 c5         1 XD4      -0.042000
     16 C15         -4.4270    -1.8860     0.2950 c3         1 XD4      -0.076100
     17 C14         -2.0730    -1.8450     1.0430 c3         1 XD4      -0.076100
     18 C16         -4.5310     1.1360     0.4010 c5         1 XD4      -0.078400
     19 C17         -4.0930     0.7870    -1.0590 c5         1 XD4      -0.079400
     20 C1          -2.8160    -0.1110    -0.8490 c5         1 XD4      -0.046000
     21 C           -2.4240    -0.9230    -2.1090 c3         1 XD4      -0.063100
     22 H1           1.1640    -1.5510    -0.5220 ha         1 XD4       0.127000
     23 H2           3.3580    -2.6640    -0.5000 ha         1 XD4       0.113000
     24 H3           5.6830    -2.5410    -0.0800 hn         1 XD4       0.463500
     25 H4           6.5090    -1.0420     0.2240 hn         1 XD4       0.463500
     26 H5           6.3720     1.2790    -0.4800 hc         1 XD4       0.040033
     27 H6           5.4390     2.4280     0.4830 hc         1 XD4       0.040033
     28 H7           6.1870     1.0340     1.2680 hc         1 XD4       0.040033
     29 H8           3.1010     2.2460     0.2640 ha         1 XD4       0.131000
     30 H9          -1.7330     1.8450    -0.9720 h1         1 XD4       0.063700
     31 H10         -1.3910     0.8540     1.8480 hc         1 XD4       0.058700
     32 H11         -2.3000     2.2590     1.3360 hc         1 XD4       0.058700
     33 H12         -3.7940     0.2000     2.3090 hc         1 XD4       0.067700
     34 H13         -5.3200    -1.4110    -0.1210 hc         1 XD4       0.034033
     35 H14         -4.1890    -2.7340    -0.3590 hc         1 XD4       0.034033
     36 H15         -4.7220    -2.2990     1.2680 hc         1 XD4       0.034033
     37 H16         -2.4120    -2.3240     1.9700 hc         1 XD4       0.034033
     38 H17         -1.8050    -2.6460     0.3440 hc         1 XD4       0.034033
     39 H18         -1.1470    -1.3230     1.2980 hc         1 XD4       0.034033
     40 H19         -5.5520     0.7920     0.6050 hc         1 XD4       0.044700
     41 H20         -4.5300     2.2160     0.5900 hc         1 XD4       0.044700
     42 H21         -4.8860     0.2530    -1.5950 hc         1 XD4       0.045700
     43 H22         -3.8860     1.6850    -1.6530 hc         1 XD4       0.045700
     44 H23         -2.1710    -0.2550    -2.9420 hc         1 XD4       0.037033
     45 H24         -1.5560    -1.5650    -1.9210 hc         1 XD4       0.037033
     46 H25         -3.2470    -1.5670    -2.4390 hc         1 XD4       0.037033
@<TRIPOS>BOND
     1     1     2 2   
     2     2     3 1   
     3     2    11 1   
     4     3     4 ar  
     5     3    10 ar  
     6     4     5 ar  
     7     4    22 1   
     8     5     6 ar  
     9     5    23 1   
    10     6     7 1   
    11     6     8 ar  
    12     7    24 1   
    13     7    25 1   
    14     8     9 1   
    15     8    10 ar  
    16     9    26 1   
    17     9    27 1   
    18     9    28 1   
    19    10    29 1   
    20    11    12 1   
    21    12    13 1   
    22    12    20 1   
    23    12    30 1   
    24    13    14 1   
    25    13    31 1   
    26    13    32 1   
    27    14    15 1   
    28    14    18 1   
    29    14    33 1   
    30    15    16 1   
    31    15    17 1   
    32    15    20 1   
    33    16    34 1   
    34    16    35 1   
    35    16    36 1   
    36    17    37 1   
    37    17    38 1   
    38    17    39 1   
    39    18    19 1   
    40    18    40 1   
    41    18    41 1   
    42    19    20 1   
    43    19    42 1   
    44    19    43 1   
    45    20    21 1   
    46    21    44 1   
    47    21    45 1   
    48    21    46 1   
@<TRIPOS>SUBSTRUCTURE
     1 XD4         1 TEMP              0 ****  ****    0 ROOT
