@<TRIPOS>MOLECULE
XD5
   34    36     1     0     0
SMALL
No Charge or Current Charge


@<TRIPOS>ATOM
      1 O1           0.0090    -2.2910     0.1170 o          1 XD5      -0.505000
      2 C6           0.2240    -1.1090    -0.1260 c          1 XD5       0.618700
      3 C4           1.6070    -0.5060    -0.0550 ca         1 XD5      -0.204600
      4 C3           1.8270     0.8640    -0.3270 ca         1 XD5      -0.004500
      5 C2           3.1240     1.4010    -0.2520 ca         1 XD5      -0.213000
      6 C1           4.2070     0.5850     0.0920 ca         1 XD5       0.346000
      7 N            5.4640     1.1120     0.1620 nv         1 XD5      -1.096000
      8 C5           2.7080    -1.3190     0.2920 ca         1 XD5      -0.004500
      9 C            4.0010    -0.7710     0.3640 ca         1 XD5      -0.213000
     10 O           -0.7450    -0.2050    -0.4960 os         1 XD5      -0.442100
     11 C7          -2.1020    -0.7200    -0.5250 c5         1 XD5       0.175300
     12 C12         -2.6480    -0.8870     0.9340 c5         1 XD5      -0.095400
     13 C11         -3.9150     0.0310     0.9410 c5         1 XD5      -0.075700
     14 C10         -3.4000     1.5050     1.0090 c5         1 XD5      -0.078400
     15 C9          -2.8290     1.7440    -0.4240 c5         1 XD5      -0.072400
     16 C13         -4.4080    -0.0680    -0.5210 c5         1 XD5      -0.087400
     17 C8          -3.0570     0.3640    -1.1360 c5         1 XD5      -0.072700
     18 H1           1.0030     1.5210    -0.5960 ha         1 XD5       0.129000
     19 H2           3.2800     2.4550    -0.4620 ha         1 XD5       0.114500
     20 H3           5.6340     2.0450    -0.2090 hn         1 XD5       0.468000
     21 H4           6.2650     0.4880     0.2330 hn         1 XD5       0.468000
     22 H5           2.5670    -2.3770     0.5070 ha         1 XD5       0.129000
     23 H6           4.8390    -1.4080     0.6330 ha         1 XD5       0.114500
     24 H7          -2.1480    -1.6560    -1.1000 h1         1 XD5       0.060700
     25 H8          -2.9200    -1.9320     1.1200 hc         1 XD5       0.059200
     26 H9          -1.9220    -0.6080     1.7060 hc         1 XD5       0.059200
     27 H10         -4.6570    -0.2240     1.7080 hc         1 XD5       0.066700
     28 H11         -4.2210     2.2000     1.2220 hc         1 XD5       0.043700
     29 H12         -2.6480     1.6550     1.7920 hc         1 XD5       0.043700
     30 H13         -3.3870     2.5390    -0.9320 hc         1 XD5       0.047200
     31 H14         -1.7810     2.0660    -0.4120 hc         1 XD5       0.047200
     32 H15         -4.7150    -1.0810    -0.8100 hc         1 XD5       0.051700
     33 H16         -5.2320     0.6190    -0.7510 hc         1 XD5       0.051700
     34 H17         -3.0400     0.4090    -2.2310 hc         1 XD5       0.070700
@<TRIPOS>BOND
     1     1     2 2   
     2     2     3 1   
     3     2    10 1   
     4     3     4 ar  
     5     3     8 ar  
     6     4     5 ar  
     7     4    18 1   
     8     5     6 ar  
     9     5    19 1   
    10     6     7 1   
    11     6     9 ar  
    12     7    20 1   
    13     7    21 1   
    14     8     9 ar  
    15     8    22 1   
    16     9    23 1   
    17    10    11 1   
    18    11    12 1   
    19    11    17 1   
    20    11    24 1   
    21    12    13 1   
    22    12    25 1   
    23    12    26 1   
    24    13    14 1   
    25    13    16 1   
    26    13    27 1   
    27    14    15 1   
    28    14    28 1   
    29    14    29 1   
    30    15    17 1   
    31    15    30 1   
    32    15    31 1   
    33    16    17 1   
    34    16    32 1   
    35    16    33 1   
    36    17    34 1   
@<TRIPOS>SUBSTRUCTURE
     1 XD5         1 TEMP              0 ****  ****    0 ROOT
