@<TRIPOS>MOLECULE
XD5
   34    36     1     0     0
SMALL
abcg2


@<TRIPOS>ATOM
      1 O1           0.0040    -2.2320     0.2550 o          1 XD5      -0.505000
      2 C6           0.2340    -1.0760    -0.0300 c          1 XD5       0.618700
      3 C4           1.5770    -0.4730    -0.0170 ca         1 XD5      -0.204600
      4 C3           1.8150     0.8610    -0.3600 ca         1 XD5      -0.004500
      5 C2           3.0900     1.3850    -0.3390 ca         1 XD5      -0.213000
      6 C1           4.1880     0.5900     0.0320 ca         1 XD5       0.346000
      7 N            5.4410     1.1160     0.0970 nv         1 XD5      -1.096000
      8 C5           2.6700    -1.2640     0.3490 ca         1 XD5      -0.004500
      9 C            3.9480    -0.7510     0.3750 ca         1 XD5      -0.213000
     10 O           -0.7090    -0.2170    -0.3940 os         1 XD5      -0.442100
     11 C7          -2.0620    -0.6750    -0.4560 c5         1 XD5       0.175300
     12 C12         -2.7180    -0.9220     0.9250 c5         1 XD5      -0.095400
     13 C11         -3.9370     0.0080     0.8960 c5         1 XD5      -0.075700
     14 C10         -3.4460     1.4550     1.0400 c5         1 XD5      -0.078400
     15 C9          -2.7720     1.7340    -0.3290 c5         1 XD5      -0.072400
     16 C13         -4.3200    -0.0480    -0.5880 c5         1 XD5      -0.087400
     17 C8          -2.9420     0.4070    -1.0840 c5         1 XD5      -0.072700
     18 H1           0.9980     1.5080    -0.6500 ha         1 XD5       0.129000
     19 H2           3.2490     2.4220    -0.6080 ha         1 XD5       0.114500
     20 H3           5.6230     1.9740    -0.3950 hn         1 XD5       0.468000
     21 H4           6.2220     0.4820     0.1230 hn         1 XD5       0.468000
     22 H5           2.5160    -2.3020     0.6140 ha         1 XD5       0.129000
     23 H6           4.7780    -1.3870     0.6600 ha         1 XD5       0.114500
     24 H7          -2.0920    -1.5810    -1.0670 h1         1 XD5       0.060700
     25 H8          -3.0180    -1.9660     1.0230 hc         1 XD5       0.059200
     26 H9          -2.0420    -0.7020     1.7540 hc         1 XD5       0.059200
     27 H10         -4.7170    -0.2670     1.6070 hc         1 XD5       0.066700
     28 H11         -4.2800     2.1370     1.2140 hc         1 XD5       0.043700
     29 H12         -2.7560     1.5670     1.8790 hc         1 XD5       0.043700
     30 H13         -3.2920     2.5270    -0.8670 hc         1 XD5       0.047200
     31 H14         -1.7320     2.0460    -0.2380 hc         1 XD5       0.047200
     32 H15         -4.5960    -1.0490    -0.9280 hc         1 XD5       0.051700
     33 H16         -5.1180     0.6440    -0.8640 hc         1 XD5       0.051700
     34 H17         -2.8200     0.4900    -2.1640 hc         1 XD5       0.070700
@<TRIPOS>BOND
     1     1     2 2   
     2     2     3 1   
     3     2    10 1   
     4     3     4 ar  
     5     3     8 ar  
     6     4     5 ar  
     7     4    18 1   
     8     5     6 ar  
     9     5    19 1   
    10     6     7 1   
    11     6     9 ar  
    12     7    20 1   
    13     7    21 1   
    14     8     9 ar  
    15     8    22 1   
    16     9    23 1   
    17    10    11 1   
    18    11    12 1   
    19    11    17 1   
    20    11    24 1   
    21    12    13 1   
    22    12    25 1   
    23    12    26 1   
    24    13    14 1   
    25    13    16 1   
    26    13    27 1   
    27    14    15 1   
    28    14    28 1   
    29    14    29 1   
    30    15    17 1   
    31    15    30 1   
    32    15    31 1   
    33    16    17 1   
    34    16    32 1   
    35    16    33 1   
    36    17    34 1   
@<TRIPOS>SUBSTRUCTURE
     1 XD5         1 TEMP              0 ****  ****    0 ROOT
