@<TRIPOS>MOLECULE
XD6
   44    45     1     0     0
SMALL
No Charge or Current Charge


@<TRIPOS>ATOM
      1 C1          -0.2100     1.4880     0.5560 c          1 XD6       0.614700
      2 C2          -1.5900     1.0810     0.1780 ca         1 XD6      -0.279600
      3 C3          -2.6680     1.9290     0.4800 ca         1 XD6       0.249100
      4 C4          -3.9800     1.5180     0.2390 ca         1 XD6      -0.271000
      5 C5          -4.2310     0.2610    -0.3230 ca         1 XD6       0.220100
      6 C6          -3.1580    -0.5870    -0.6740 ca         1 XD6       0.037000
      7 C7          -1.8230    -0.1730    -0.4360 ca         1 XD6       0.079700
      8 C8          -0.6380    -1.0230    -0.9130 c3         1 XD6      -0.156100
      9 C9          -0.0700    -1.9870     0.1380 c          1 XD6       0.602100
     10 C10          1.4300    -2.3150     0.0180 c3         1 XD6      -0.164400
     11 C11          2.2160    -2.1800     1.3470 c3         1 XD6      -0.060400
     12 C12          3.7520    -2.2950     1.1680 c3         1 XD6      -0.071400
     13 C13          4.5100    -0.9540     0.9850 c3         1 XD6      -0.022200
     14 C14          3.9490    -0.0180    -0.0860 ce         1 XD6      -0.213400
     15 C15          3.1810     1.0440     0.2670 c2         1 XD6      -0.131200
     16 C16          2.5650     2.0960    -0.6500 c3         1 XD6      -0.077200
     17 C17          1.5730     3.0670     0.0530 c3         1 XD6       0.175600
     18 O1           0.2150     2.6020    -0.1160 os         1 XD6      -0.476100
     19 O2           0.4320     0.8980     1.4070 o          1 XD6      -0.472000
     20 O3          -2.4610     3.1640     1.0110 oh         1 XD6      -0.530100
     21 O4          -5.5240    -0.1200    -0.5430 oh         1 XD6      -0.503100
     22 Cl1         -3.5070    -2.1620    -1.4100 cl         1 XD6      -0.167000
     23 O5          -0.7890    -2.5560     0.9500 o          1 XD6      -0.510100
     24 C21          4.3280    -0.2960    -1.5160 c          1 XD6       0.567100
     25 O22          5.0280    -1.2390    -1.8690 o          1 XD6      -0.520100
     26 H4          -4.8000     2.1850     0.4920 ha         1 XD6       0.138000
     27 H3          -1.5430     3.4340     0.7910 ho         1 XD6       0.494000
     28 HA          -6.1130     0.6010    -0.2380 ho         1 XD6       0.476000
     29 H81C        -0.8900    -1.6250    -1.7920 hc         1 XD6       0.075700
     30 H82C         0.1700    -0.3950    -1.3020 hc         1 XD6       0.075700
     31 H101         1.5120    -3.3540    -0.3240 hc         1 XD6       0.056200
     32 H102         1.8860    -1.6900    -0.7560 hc         1 XD6       0.056200
     33 H111         1.9750    -1.2300     1.8400 hc         1 XD6       0.053200
     34 H112         1.8790    -2.9720     2.0290 hc         1 XD6       0.053200
     35 H121         4.1680    -2.7940     2.0520 hc         1 XD6       0.046200
     36 H122         3.9730    -2.9560     0.3210 hc         1 XD6       0.046200
     37 H131         4.5210    -0.4410     1.9560 hc         1 XD6       0.046200
     38 H132         5.5630    -1.1790     0.7760 hc         1 XD6       0.046200
     39 H15          2.9720     1.2100     1.3250 ha         1 XD6       0.179000
     40 H161         3.3750     2.7000    -1.0770 hc         1 XD6       0.064700
     41 H162         2.0590     1.6240    -1.5000 hc         1 XD6       0.064700
     42 H171         1.8310     3.1980     1.1130 h1         1 XD6       0.062700
     43 H172         1.6710     4.0510    -0.4240 h1         1 XD6       0.062700
     44 H21          3.9300     0.4150    -2.2720 h4         1 XD6      -0.020800
@<TRIPOS>BOND
     1     1     2 1   
     2     1    18 1   
     3     1    19 2   
     4     2     3 ar  
     5     2     7 ar  
     6     3     4 ar  
     7     3    20 1   
     8     4     5 ar  
     9     4    26 1   
    10     5     6 ar  
    11     5    21 1   
    12     6     7 ar  
    13     6    22 1   
    14     7     8 1   
    15     8     9 1   
    16     8    29 1   
    17     8    30 1   
    18     9    10 1   
    19     9    23 2   
    20    10    11 1   
    21    10    31 1   
    22    10    32 1   
    23    11    12 1   
    24    11    33 1   
    25    11    34 1   
    26    12    13 1   
    27    12    35 1   
    28    12    36 1   
    29    13    14 1   
    30    13    37 1   
    31    13    38 1   
    32    14    15 2   
    33    14    24 1   
    34    15    16 1   
    35    15    39 1   
    36    16    17 1   
    37    16    40 1   
    38    16    41 1   
    39    17    18 1   
    40    17    42 1   
    41    17    43 1   
    42    20    27 1   
    43    21    28 1   
    44    24    25 2   
    45    24    44 1   
@<TRIPOS>SUBSTRUCTURE
     1 XD6         1 TEMP              0 ****  ****    0 ROOT
