@<TRIPOS>MOLECULE
XDD
   42    44     1     0     0
SMALL
No Charge or Current Charge


@<TRIPOS>ATOM
      1 C12        -42.1190    13.6550   -12.5940 c3         1 XDD      -0.014400
      2 C14        -41.0440    13.1960   -10.2810 cc         1 XDD       0.411700
      3 C16        -39.6900    13.3870   -12.0590 ca         1 XDD       0.144500
      4 C10        -43.1680    14.1450   -16.0550 c5         1 XDD      -0.083400
      5 C11        -42.7390    12.3600   -13.1790 c          1 XDD       0.589100
      6 C02        -42.8310    10.2270   -15.4180 c          1 XDD       0.717000
      7 C05        -44.0220    13.8130   -14.8020 c5         1 XDD       0.091700
      8 C06        -45.4490    13.8010   -15.4410 c5         1 XDD       0.129500
      9 C08        -45.4160    15.2120   -16.0820 c5         1 XDD      -0.074400
     10 C09        -44.0060    15.2630   -16.7600 c5         1 XDD      -0.086400
     11 C17        -38.9800    13.1320   -10.9110 ca         1 XDD      -0.098600
     12 C18        -37.5770    13.0240   -11.0140 ca         1 XDD       0.441900
     13 C21        -37.7490    13.4080   -13.2650 ca         1 XDD       0.174900
     14 N04        -43.6030    12.4490   -14.3120 n          1 XDD      -0.360800
     15 N07        -46.5550    13.6270   -14.4780 n8         1 XDD      -0.998200
     16 N13        -40.9940    13.4370   -11.6560 na         1 XDD      -0.254300
     17 N15        -39.8050    13.0090    -9.7830 nd         1 XDD      -0.570100
     18 N20        -36.9530    13.1590   -12.1950 nb         1 XDD      -0.313000
     19 N22        -39.0980    13.5320   -13.2620 nb         1 XDD      -0.180000
     20 O01        -42.9510     9.0250   -15.2200 o          1 XDD      -0.720500
     21 O23        -42.4900    11.2720   -12.6670 o          1 XDD      -0.579100
     22 H121       -41.7650    14.2760   -13.4240 h1         1 XDD       0.070200
     23 H122       -42.9150    14.2040   -12.0750 h1         1 XDD       0.070200
     24 H141       -41.9740    13.1710    -9.7260 h5         1 XDD       0.056800
     25 H101       -43.0580    13.2770   -16.7160 hc         1 XDD       0.076700
     26 H102       -42.1570    14.4790   -15.7970 hc         1 XDD       0.076700
     27 H032       -44.5680    11.3540   -15.8970 h1         1 XDD       0.036700
     28 H031       -44.6510    10.6010   -14.3030 h1         1 XDD       0.036700
     29 H051       -43.9540    14.5940   -14.0340 h1         1 XDD       0.027700
     30 H061       -45.5600    13.0490   -16.2350 h1         1 XDD       0.078700
     31 H082       -45.5150    16.0010   -15.3270 hc         1 XDD       0.036700
     32 H081       -46.2250    15.3580   -16.8070 hc         1 XDD       0.036700
     33 H092       -43.5480    16.2520   -16.6350 hc         1 XDD       0.034200
     34 H091       -44.0710    15.0790   -17.8380 hc         1 XDD       0.034200
     35 H211       -37.2520    13.5210   -14.2270 h5         1 XDD       0.043100
     36 H2         -46.4280    12.7300   -13.9940 hn         1 XDD       0.391000
     37 H3         -46.4590    14.3190   -13.7270 hn         1 XDD       0.391000
     38 H192       -35.8410    12.4180   -10.1210 hn         1 XDD       0.496500
     39 H191       -37.2350    12.4490    -9.0930 hn         1 XDD       0.496500
     40 O1         -41.8660    10.7210   -15.9860 o          1 XDD      -0.720500
     41 C03        -43.9980    11.1600   -14.9850 c3         1 XDD      -0.060000
     42 N19        -36.7780    12.7700    -9.9430 nv         1 XDD      -1.077900
@<TRIPOS>BOND
     1     1     5 1   
     2     1    16 1   
     3     1    22 1   
     4     1    23 1   
     5     2    16 1   
     6     2    17 2   
     7     2    24 1   
     8     3    11 ar  
     9     3    16 1   
    10     3    19 ar  
    11     4     7 1   
    12     4    10 1   
    13     4    25 1   
    14     4    26 1   
    15     5    14 1   
    16     5    21 2   
    17     6    20 1   
    18     6    40 1   
    19     6    41 1   
    20     7     8 1   
    21     7    14 1   
    22     7    29 1   
    23     8     9 1   
    24     8    15 1   
    25     8    30 1   
    26     9    10 1   
    27     9    31 1   
    28     9    32 1   
    29    10    33 1   
    30    10    34 1   
    31    11    12 ar  
    32    11    17 1   
    33    12    18 ar  
    34    12    42 1   
    35    13    18 ar  
    36    13    19 ar  
    37    13    35 1   
    38    14    41 1   
    39    15    36 1   
    40    15    37 1   
    41    27    41 1   
    42    28    41 1   
    43    38    42 1   
    44    39    42 1   
@<TRIPOS>SUBSTRUCTURE
     1 XDD         1 TEMP              0 ****  ****    0 ROOT
