@<TRIPOS>MOLECULE
XDD
   42    44     1     0     0
SMALL
abcg2


@<TRIPOS>ATOM
      1 C12        -41.8930    13.8410   -12.9910 c3         1 XDD      -0.014400
      2 C14        -41.3050    13.4650   -10.5890 cc         1 XDD       0.411700
      3 C16        -39.6490    13.3770   -12.0040 ca         1 XDD       0.144500
      4 C10        -43.6990    13.8510   -16.6600 c5         1 XDD      -0.083400
      5 C11        -42.3290    12.4890   -13.5700 c          1 XDD       0.589100
      6 C02        -42.5340    10.6010   -16.1130 c          1 XDD       0.717000
      7 C05        -43.7970    13.7000   -15.1420 c5         1 XDD       0.091700
      8 C06        -45.2990    13.8720   -14.8590 c5         1 XDD       0.129500
      9 C08        -45.6490    15.0630   -15.7460 c5         1 XDD      -0.074400
     10 C09        -44.7520    14.9270   -16.9950 c5         1 XDD      -0.086400
     11 C17        -39.2360    13.0870   -10.7120 ca         1 XDD      -0.098600
     12 C18        -37.8720    12.7870   -10.5480 ca         1 XDD       0.441900
     13 C21        -37.6270    13.1080   -12.8130 ca         1 XDD       0.174900
     14 N04        -43.2180    12.4950   -14.5760 n          1 XDD      -0.360800
     15 N07        -45.6920    14.0520   -13.4790 n8         1 XDD      -0.998200
     16 N13        -40.9810    13.6400   -11.9030 na         1 XDD      -0.254300
     17 N15        -40.2910    13.1480    -9.8390 nd         1 XDD      -0.570100
     18 N20        -37.0900    12.8080   -11.6330 nb         1 XDD      -0.313000
     19 N22        -38.8840    13.4020   -13.0940 nb         1 XDD      -0.180000
     20 O01        -42.8350     9.4640   -16.5250 o          1 XDD      -0.720500
     21 O23        -41.8670    11.4640   -13.0910 o          1 XDD      -0.579100
     22 H121       -41.4030    14.4530   -13.7510 h1         1 XDD       0.070200
     23 H122       -42.7480    14.4090   -12.6240 h1         1 XDD       0.070200
     24 H141       -42.3200    13.6020   -10.2440 h5         1 XDD       0.056800
     25 H101       -43.9520    12.9130   -17.1550 hc         1 XDD       0.076700
     26 H102       -42.6940    14.1210   -16.9840 hc         1 XDD       0.076700
     27 H032       -44.5220    11.3270   -15.6880 h1         1 XDD       0.036700
     28 H031       -43.7850    10.5000   -14.3480 h1         1 XDD       0.036700
     29 H051       -43.2990    14.5650   -14.6980 h1         1 XDD       0.027700
     30 H061       -45.8230    12.9850   -15.2370 h1         1 XDD       0.078700
     31 H082       -45.4130    15.9860   -15.2090 hc         1 XDD       0.036700
     32 H081       -46.7110    15.0990   -15.9880 hc         1 XDD       0.036700
     33 H092       -44.2800    15.8800   -17.2360 hc         1 XDD       0.034200
     34 H091       -45.3310    14.6380   -17.8720 hc         1 XDD       0.034200
     35 H211       -36.9380    13.1070   -13.6510 h5         1 XDD       0.043100
     36 H2         -45.4060    13.2500   -12.9290 hn         1 XDD       0.391000
     37 H3         -45.2080    14.8520   -13.0860 hn         1 XDD       0.391000
     38 H192       -36.3710    12.2140    -9.2990 hn         1 XDD       0.496500
     39 H191       -37.9110    12.3950    -8.5430 hn         1 XDD       0.496500
     40 O1         -41.5290    11.2730   -16.3940 o          1 XDD      -0.720500
     41 C03        -43.5800    11.2130   -15.1480 c3         1 XDD      -0.060000
     42 N19        -37.3350    12.4940    -9.3610 nv         1 XDD      -1.077900
@<TRIPOS>BOND
     1     1     5 1   
     2     1    16 1   
     3     1    22 1   
     4     1    23 1   
     5     2    16 1   
     6     2    17 2   
     7     2    24 1   
     8     3    11 ar  
     9     3    16 1   
    10     3    19 ar  
    11     4     7 1   
    12     4    10 1   
    13     4    25 1   
    14     4    26 1   
    15     5    14 1   
    16     5    21 2   
    17     6    20 1   
    18     6    40 1   
    19     6    41 1   
    20     7     8 1   
    21     7    14 1   
    22     7    29 1   
    23     8     9 1   
    24     8    15 1   
    25     8    30 1   
    26     9    10 1   
    27     9    31 1   
    28     9    32 1   
    29    10    33 1   
    30    10    34 1   
    31    11    12 ar  
    32    11    17 1   
    33    12    18 ar  
    34    12    42 1   
    35    13    18 ar  
    36    13    19 ar  
    37    13    35 1   
    38    14    41 1   
    39    15    36 1   
    40    15    37 1   
    41    27    41 1   
    42    28    41 1   
    43    38    42 1   
    44    39    42 1   
@<TRIPOS>SUBSTRUCTURE
     1 XDD         1 TEMP              0 ****  ****    0 ROOT
