@<TRIPOS>MOLECULE
XDE
   26    26     1     0     0
SMALL
No Charge or Current Charge


@<TRIPOS>ATOM
      1 C1          -0.0350     0.0370     0.4260 ca         1 XDE      -0.109300
      2 C2           0.9190     0.9190     0.9770 ca         1 XDE      -0.104000
      3 C3           2.2840     0.7560     0.6930 ca         1 XDE       0.124100
      4 C4           2.7160    -0.2920    -0.1430 ca         1 XDE       0.045100
      5 C5           1.7750    -1.1780    -0.6910 ca         1 XDE      -0.156000
      6 C6           0.4070    -1.0160    -0.4070 ca         1 XDE      -0.111000
      7 O1           3.2040     1.6120     1.2250 oh         1 XDE      -0.531100
      8 O2           4.0500    -0.4470    -0.4170 oh         1 XDE      -0.557100
      9 O3          -1.9450    -0.8130     1.6480 oh         1 XDE      -0.650000
     10 C9          -4.7900     0.4240    -1.3120 c3         1 XDE       0.151100
     11 C8          -2.4250     0.2490    -0.5220 c3         1 XDE       0.134800
     12 C7          -1.5190     0.2260     0.7480 c3         1 XDE       0.211600
     13 H1           0.6040     1.7320     1.6270 ha         1 XDE       0.135000
     14 H2           2.0950    -1.9940    -1.3360 ha         1 XDE       0.114000
     15 H3          -0.3060    -1.7160    -0.8380 ha         1 XDE       0.110000
     16 H4           4.0780     1.3050     0.8920 ho         1 XDE       0.482000
     17 H5           4.1640    -1.2230    -1.0110 ho         1 XDE       0.474000
     18 H6          -1.5630    -1.6480     1.3050 ho         1 XDE       0.437000
     19 H7          -4.7790    -0.5830    -1.7500 h1         1 XDE       0.027367
     20 H8          -5.8130     0.6390    -0.9770 h1         1 XDE       0.027367
     21 H9          -4.5310     1.1450    -2.1000 h1         1 XDE       0.027367
     22 H10         -4.1220    -0.1710     0.5300 hn         1 XDE       0.423000
     23 H12         -2.3410    -0.7180    -1.0380 h1         1 XDE       0.032700
     24 H13         -2.0490     1.0190    -1.2100 h1         1 XDE       0.032700
     25 H14         -1.6400     1.2040     1.2360 h1         1 XDE       0.092700
     26 N1          -3.8450     0.5180    -0.1840 n7         1 XDE      -0.866400
@<TRIPOS>BOND
     1     1     2 ar  
     2     1     6 ar  
     3     1    12 1   
     4     2     3 ar  
     5     2    13 1   
     6     3     4 ar  
     7     3     7 1   
     8     4     5 ar  
     9     4     8 1   
    10     5     6 ar  
    11     5    14 1   
    12     6    15 1   
    13     7    16 1   
    14     8    17 1   
    15     9    12 1   
    16     9    18 1   
    17    10    19 1   
    18    10    20 1   
    19    10    21 1   
    20    10    26 1   
    21    11    12 1   
    22    11    23 1   
    23    11    24 1   
    24    11    26 1   
    25    12    25 1   
    26    22    26 1   
@<TRIPOS>SUBSTRUCTURE
     1 XDE         1 TEMP              0 ****  ****    0 ROOT
