@<TRIPOS>MOLECULE
XDE
   26    26     1     0     0
SMALL
abcg2


@<TRIPOS>ATOM
      1 C1          -0.0710    -0.1050     0.4600 ca         1 XDE      -0.109300
      2 C2           0.8150     0.9090     0.8140 ca         1 XDE      -0.104000
      3 C3           2.1600     0.8370     0.4870 ca         1 XDE       0.124100
      4 C4           2.6410    -0.2880    -0.1910 ca         1 XDE       0.045100
      5 C5           1.7680    -1.3020    -0.5420 ca         1 XDE      -0.156000
      6 C6           0.4190    -1.2100    -0.2250 ca         1 XDE      -0.111000
      7 O1           2.9810     1.8510     0.8310 oh         1 XDE      -0.531100
      8 O2           3.9700    -0.2910    -0.4650 oh         1 XDE      -0.557100
      9 O3          -2.0040    -1.0630     1.5880 oh         1 XDE      -0.650000
     10 C9          -4.6010     0.6330    -1.2780 c3         1 XDE       0.151100
     11 C8          -2.3800     0.2050    -0.4530 c3         1 XDE       0.134800
     12 C7          -1.5360     0.0160     0.8050 c3         1 XDE       0.211600
     13 H1           0.4580     1.7820     1.3470 ha         1 XDE       0.135000
     14 H2           2.1330    -2.1730    -1.0740 ha         1 XDE       0.114000
     15 H3          -0.2300    -2.0160    -0.5430 ha         1 XDE       0.110000
     16 H4           3.8890     1.6310     0.5970 ho         1 XDE       0.482000
     17 H5           4.2380    -1.1390    -0.8280 ho         1 XDE       0.474000
     18 H6          -1.7630    -1.8870     1.1560 ho         1 XDE       0.437000
     19 H7          -4.5670    -0.2130    -1.9800 h1         1 XDE       0.027367
     20 H8          -5.6360     0.7640    -0.9640 h1         1 XDE       0.027367
     21 H9          -4.3180     1.5280    -1.8360 h1         1 XDE       0.027367
     22 H10         -4.1100    -0.2480     0.4800 hn         1 XDE       0.423000
     23 H12         -2.2570    -0.6740    -1.1140 h1         1 XDE       0.032700
     24 H13         -1.9730     1.0540    -1.0110 h1         1 XDE       0.032700
     25 H14         -1.6790     0.9030     1.4290 h1         1 XDE       0.092700
     26 N1          -3.7530     0.4830    -0.1200 n7         1 XDE      -0.866400
@<TRIPOS>BOND
     1     1     2 ar  
     2     1     6 ar  
     3     1    12 1   
     4     2     3 ar  
     5     2    13 1   
     6     3     4 ar  
     7     3     7 1   
     8     4     5 ar  
     9     4     8 1   
    10     5     6 ar  
    11     5    14 1   
    12     6    15 1   
    13     7    16 1   
    14     8    17 1   
    15     9    12 1   
    16     9    18 1   
    17    10    19 1   
    18    10    20 1   
    19    10    21 1   
    20    10    26 1   
    21    11    12 1   
    22    11    23 1   
    23    11    24 1   
    24    11    26 1   
    25    12    25 1   
    26    22    26 1   
@<TRIPOS>SUBSTRUCTURE
     1 XDE         1 TEMP              0 ****  ****    0 ROOT
