@<TRIPOS>MOLECULE
XDF
   30    31     1     0     0
SMALL
abcg2


@<TRIPOS>ATOM
      1 C4          91.3380   105.3870    40.4180 ca         1 XDF      -0.276000
      2 C5          90.9140   104.2720    39.6690 ca         1 XDF       0.165100
      3 C7          89.2790   105.6010    38.5130 c3         1 XDF       0.152900
      4 C8          91.4950   103.0380    39.8560 ca         1 XDF      -0.175000
      5 C10         92.9810   103.9880    41.5710 ca         1 XDF       0.253000
      6 C15         93.1560   101.6160    41.0590 ca         1 XDF       0.334000
      7 C1          92.2290   107.5720    41.9060 c3         1 XDF       0.142900
      8 C12         94.5540   102.7380    42.6890 ca         1 XDF       0.382300
      9 C14         94.1680   101.5750    41.9980 ca         1 XDF      -0.248000
     10 C3          92.3510   105.2520    41.3460 ca         1 XDF       0.196100
     11 C9          92.5220   102.8800    40.8080 ca         1 XDF      -0.058000
     12 N11         93.9800   103.9110    42.4930 nb         1 XDF      -0.664000
     13 N16         92.7970   100.5010    40.3450 nv         1 XDF      -1.086000
     14 O2          92.8120   106.2830    42.0920 os         1 XDF      -0.313100
     15 O6          89.9280   104.3490    38.7310 os         1 XDF      -0.354100
     16 H1          90.8750   106.3470    40.2620 ha         1 XDF       0.122000
     17 H2          88.5380   105.4190    37.7390 h1         1 XDF       0.041033
     18 H3          88.7800   105.9500    39.4210 h1         1 XDF       0.041033
     19 H4          89.9870   106.3590    38.1710 h1         1 XDF       0.041033
     20 H5          91.1510   102.2120    39.2490 ha         1 XDF       0.124000
     21 H6          95.8600   103.6400    44.1270 hc         1 XDF       0.050367
     22 H7          95.3850   101.9770    44.5210 hc         1 XDF       0.050367
     23 H8          96.5740   102.2660    43.2580 hc         1 XDF       0.050367
     24 H9          92.7540   108.2350    42.5890 h1         1 XDF       0.042367
     25 H10         92.3630   107.9190    40.8790 h1         1 XDF       0.042367
     26 H11         91.1640   107.5600    42.1520 h1         1 XDF       0.042367
     27 H12         94.6660   100.6360    42.2090 ha         1 XDF       0.117000
     28 H13         93.1220    99.6150    40.7040 hn         1 XDF       0.463500
     29 H14         91.8660   100.4600    39.9650 hn         1 XDF       0.463500
     30 C13         95.6570   102.6550    43.7080 c3         1 XDF      -0.144400
@<TRIPOS>BOND
     1     1     2 ar  
     2     1    10 ar  
     3     1    16 1   
     4     2     4 ar  
     5     2    15 1   
     6     3    15 1   
     7     3    17 1   
     8     3    18 1   
     9     3    19 1   
    10     4    11 ar  
    11     4    20 1   
    12     5    10 ar  
    13     5    11 ar  
    14     5    12 ar  
    15     6     9 ar  
    16     6    11 ar  
    17     6    13 1   
    18     7    14 1   
    19     7    24 1   
    20     7    25 1   
    21     7    26 1   
    22     8     9 ar  
    23     8    12 ar  
    24     8    30 1   
    25     9    27 1   
    26    10    14 1   
    27    13    28 1   
    28    13    29 1   
    29    21    30 1   
    30    22    30 1   
    31    23    30 1   
@<TRIPOS>SUBSTRUCTURE
     1 XDF         1 TEMP              0 ****  ****    0 ROOT
