@<TRIPOS>MOLECULE
XDF
   30    31     1     0     0
SMALL
No Charge or Current Charge


@<TRIPOS>ATOM
      1 C4          91.3260   105.3890    40.4220 ca         1 XDF      -0.276000
      2 C5          90.9030   104.2750    39.6760 ca         1 XDF       0.165100
      3 C7          89.2010   105.5750    38.4430 c3         1 XDF       0.152900
      4 C8          91.5110   103.0320    39.8770 ca         1 XDF      -0.175000
      5 C10         92.9920   103.9900    41.5860 ca         1 XDF       0.253000
      6 C15         93.1740   101.6210    41.0410 ca         1 XDF       0.334000
      7 C1          92.2290   107.6590    41.9790 c3         1 XDF       0.142900
      8 C12         94.5770   102.6660    42.6890 ca         1 XDF       0.382300
      9 C14         94.1950   101.5250    41.9820 ca         1 XDF      -0.248000
     10 C3          92.3640   105.2530    41.3720 ca         1 XDF       0.196100
     11 C9          92.5510   102.8740    40.8250 ca         1 XDF      -0.058000
     12 N11         93.9930   103.8640    42.5010 nb         1 XDF      -0.664000
     13 N16         92.8190   100.4800    40.3640 nv         1 XDF      -1.086000
     14 O2          92.7950   106.3440    42.1170 os         1 XDF      -0.313100
     15 O6          89.8970   104.3500    38.7350 os         1 XDF      -0.354100
     16 H1          90.8540   106.3510    40.2650 ha         1 XDF       0.122000
     17 H2          88.4440   105.4060    37.6660 h1         1 XDF       0.041033
     18 H3          88.6910   105.9560    39.3360 h1         1 XDF       0.041033
     19 H4          89.8960   106.3420    38.0780 h1         1 XDF       0.041033
     20 H5          91.1640   102.1930    39.2830 ha         1 XDF       0.124000
     21 H6          96.2630   103.5400    43.7450 hc         1 XDF       0.050367
     22 H7          95.2600   102.4590    44.7300 hc         1 XDF       0.050367
     23 H8          96.3760   101.7890    43.5270 hc         1 XDF       0.050367
     24 H9          92.7240   108.3580    42.6640 h1         1 XDF       0.042367
     25 H10         92.3620   108.0350    40.9560 h1         1 XDF       0.042367
     26 H11         91.1580   107.6500    42.2170 h1         1 XDF       0.042367
     27 H12         94.6910   100.5780    42.1700 ha         1 XDF       0.117000
     28 H13         93.1880    99.5810    40.6680 hn         1 XDF       0.463500
     29 H14         91.9680   100.4670    39.8070 hn         1 XDF       0.463500
     30 C13         95.6800   102.6110    43.7290 c3         1 XDF      -0.144400
@<TRIPOS>BOND
     1     1     2 ar  
     2     1    10 ar  
     3     1    16 1   
     4     2     4 ar  
     5     2    15 1   
     6     3    15 1   
     7     3    17 1   
     8     3    18 1   
     9     3    19 1   
    10     4    11 ar  
    11     4    20 1   
    12     5    10 ar  
    13     5    11 ar  
    14     5    12 ar  
    15     6     9 ar  
    16     6    11 ar  
    17     6    13 1   
    18     7    14 1   
    19     7    24 1   
    20     7    25 1   
    21     7    26 1   
    22     8     9 ar  
    23     8    12 ar  
    24     8    30 1   
    25     9    27 1   
    26    10    14 1   
    27    13    28 1   
    28    13    29 1   
    29    21    30 1   
    30    22    30 1   
    31    23    30 1   
@<TRIPOS>SUBSTRUCTURE
     1 XDF         1 TEMP              0 ****  ****    0 ROOT
