@<TRIPOS>MOLECULE
XDH
   33    34     1     0     0
SMALL
bcc


@<TRIPOS>ATOM
      1 CAA          0.0850     1.3580     2.7760 c3         1 XDH      -0.086100
      2 CAB         -0.0230    -1.1160     2.8630 c3         1 XDH      -0.086100
      3 OAD          4.4600    -0.7090    -1.5380 oh         1 XDH      -0.467100
      4 CLAE        -4.8490    -1.5050     0.6830 cl         1 XDH      -0.094150
      5 CLAF        -2.4620     2.4920    -1.9840 cl         1 XDH      -0.094150
      6 CLAG         4.7920     1.6040     0.3400 cl         1 XDH      -0.094150
      7 CLAH         2.3020    -2.5730    -1.9260 cl         1 XDH      -0.094150
      8 CAI         -2.3510    -0.6280     1.2330 ca         1 XDH      -0.074500
      9 CAJ         -1.2980     1.1490     0.0430 ca         1 XDH      -0.074500
     10 CAK          2.3300     0.7610     1.0710 ca         1 XDH      -0.074500
     11 CAL          1.2290    -1.0940     0.0580 ca         1 XDH      -0.074500
     12 CAM         -3.5470     0.4830    -0.5710 ca         1 XDH       0.163600
     13 CAN          3.4430    -0.4680    -0.7090 ca         1 XDH       0.163600
     14 CAO         -3.4750    -0.4750     0.4340 ca         1 XDH      -0.041100
     15 CAP         -2.4210     1.2910    -0.7430 ca         1 XDH      -0.041100
     16 CAQ          3.4140     0.5570     0.2310 ca         1 XDH      -0.041100
     17 CAR          2.3140    -1.2890    -0.7700 ca         1 XDH      -0.041100
     18 CAS         -1.2440     0.1850     1.0500 ca         1 XDH      -0.099300
     19 CAT          1.2180    -0.0640     0.9980 ca         1 XDH      -0.099300
     20 CAU          0.0090     0.0900     1.9160 c3         1 XDH       0.061600
     21 HAA          0.9470     1.3330     3.4450 hc         1 XDH       0.042700
     22 HAAA         0.1440     2.2670     2.1770 hc         1 XDH       0.042700
     23 HAAB        -0.8090     1.4290     3.3960 hc         1 XDH       0.042700
     24 HAB         -0.8520    -1.0440     3.5680 hc         1 XDH       0.042700
     25 HABA        -0.1080    -2.0630     2.3300 hc         1 XDH       0.042700
     26 HABB         0.8990    -1.1450     3.4440 hc         1 XDH       0.042700
     27 HOAC        -5.3160     0.0580    -1.1470 ho         1 XDH       0.443000
     28 HOAD         5.1820    -0.0840    -1.3900 ho         1 XDH       0.443000
     29 HAI         -2.3640    -1.3940     1.9940 ha         1 XDH       0.153750
     30 HAJ         -0.4490     1.7970    -0.1400 ha         1 XDH       0.153750
     31 HAK          2.3770     1.5770     1.7780 ha         1 XDH       0.153750
     32 HAL          0.3750    -1.7530    -0.0390 ha         1 XDH       0.153750
     33 OAC         -4.6020     0.6720    -1.3650 oh         1 XDH      -0.467100
@<TRIPOS>BOND
     1     1    20 1   
     2     1    21 1   
     3     1    22 1   
     4     1    23 1   
     5     2    20 1   
     6     2    24 1   
     7     2    25 1   
     8     2    26 1   
     9     3    13 1   
    10     3    28 1   
    11     4    14 1   
    12     5    15 1   
    13     6    16 1   
    14     7    17 1   
    15     8    14 ar  
    16     8    18 ar  
    17     8    29 1   
    18     9    15 ar  
    19     9    18 ar  
    20     9    30 1   
    21    10    16 ar  
    22    10    19 ar  
    23    10    31 1   
    24    11    17 ar  
    25    11    19 ar  
    26    11    32 1   
    27    12    14 ar  
    28    12    15 ar  
    29    12    33 1   
    30    13    16 ar  
    31    13    17 ar  
    32    18    20 1   
    33    19    20 1   
    34    27    33 1   
@<TRIPOS>SUBSTRUCTURE
     1 XDH         1 TEMP              0 ****  ****    0 ROOT
