@<TRIPOS>MOLECULE
XDH
   33    34     1     0     0
SMALL
No Charge or Current Charge


@<TRIPOS>ATOM
      1 CAA          0.0730     1.3770     2.8210 c3         1 XDH      -0.086100
      2 CAB         -0.0090    -1.1290     2.9070 c3         1 XDH      -0.086100
      3 OAD          4.4930    -0.6490    -1.6010 oh         1 XDH      -0.506100
      4 ClAE        -4.9290    -1.5110     0.7080 cl         1 XDH      -0.185750
      5 ClAF        -2.3660     2.4940    -2.1010 cl         1 XDH      -0.185750
      6 ClAG         4.8820     1.6030     0.3670 cl         1 XDH      -0.185750
      7 ClAH         2.1930    -2.5780    -2.0400 cl         1 XDH      -0.185750
      8 CAI         -2.4030    -0.6110     1.2590 ca         1 XDH      -0.056500
      9 CAJ         -1.2830     1.1520     0.0220 ca         1 XDH      -0.056500
     10 CAK          2.3860     0.7460     1.0990 ca         1 XDH      -0.056500
     11 CAL          1.2100    -1.0950     0.0380 ca         1 XDH      -0.056500
     12 CAM         -3.5380     0.4740    -0.6140 ca         1 XDH       0.163600
     13 CAN          3.4320    -0.4650    -0.7490 ca         1 XDH       0.163600
     14 CAO         -3.5290    -0.4750     0.4280 ca         1 XDH       0.050500
     15 CAP         -2.4050     1.2890    -0.8110 ca         1 XDH       0.050500
     16 CAQ          3.4710     0.5520     0.2250 ca         1 XDH       0.050500
     17 CAR          2.2920    -1.2900    -0.8370 ca         1 XDH       0.050500
     18 CAS         -1.2580     0.2000     1.0670 ca         1 XDH      -0.099300
     19 CAT          1.2350    -0.0750     1.0160 ca         1 XDH      -0.099300
     20 CAU          0.0100     0.0930     1.9480 c3         1 XDH       0.061600
     21 HAA          0.9110     1.3380     3.5280 hc         1 XDH       0.042700
     22 HAAA         0.1830     2.2760     2.2040 hc         1 XDH       0.042700
     23 HAAB        -0.8470     1.4870     3.4070 hc         1 XDH       0.042700
     24 HAB         -0.8120    -1.0410     3.6500 hc         1 XDH       0.042700
     25 HABA        -0.1470    -2.0680     2.3580 hc         1 XDH       0.042700
     26 HABB         0.9390    -1.2010     3.4540 hc         1 XDH       0.042700
     27 HOAC        -5.3130    -0.0460    -1.1250 ho         1 XDH       0.482000
     28 HOAD         5.1790     0.0170    -1.3800 ho         1 XDH       0.482000
     29 HAI         -2.4450    -1.3540     2.0500 ha         1 XDH       0.135750
     30 HAJ         -0.4210     1.7910    -0.1530 ha         1 XDH       0.135750
     31 HAK          2.4650     1.5400     1.8340 ha         1 XDH       0.135750
     32 HAL          0.3420    -1.7440    -0.0520 ha         1 XDH       0.135750
     33 OAC         -4.6390     0.6030    -1.4230 oh         1 XDH      -0.506100
@<TRIPOS>BOND
     1     1    20 1   
     2     1    21 1   
     3     1    22 1   
     4     1    23 1   
     5     2    20 1   
     6     2    24 1   
     7     2    25 1   
     8     2    26 1   
     9     3    13 1   
    10     3    28 1   
    11     4    14 1   
    12     5    15 1   
    13     6    16 1   
    14     7    17 1   
    15     8    14 ar  
    16     8    18 ar  
    17     8    29 1   
    18     9    15 ar  
    19     9    18 ar  
    20     9    30 1   
    21    10    16 ar  
    22    10    19 ar  
    23    10    31 1   
    24    11    17 ar  
    25    11    19 ar  
    26    11    32 1   
    27    12    14 ar  
    28    12    15 ar  
    29    12    33 1   
    30    13    16 ar  
    31    13    17 ar  
    32    18    20 1   
    33    19    20 1   
    34    27    33 1   
@<TRIPOS>SUBSTRUCTURE
     1 XDH         1 TEMP              0 ****  ****    0 ROOT
