@<TRIPOS>MOLECULE
XDI
   33    34     1     0     0
SMALL
No Charge or Current Charge


@<TRIPOS>ATOM
      1 CAA          0.0830     1.2660     3.1340 c3         1 XDI      -0.087100
      2 CAB         -0.0850    -1.2360     3.1860 c3         1 XDI      -0.087100
      3 OAD          4.4720    -0.8490    -1.2600 oh         1 XDI      -0.505100
      4 BrAE        -5.1170    -1.5010     0.9600 br         1 XDI      -0.080100
      5 BrAF        -2.2430     2.6180    -1.9260 br         1 XDI      -0.080100
      6 BrAG         2.1080    -2.7890    -1.8750 br         1 XDI      -0.080100
      7 BrAH         5.0570     1.4380     0.7680 br         1 XDI      -0.080100
      8 CAI         -2.4420    -0.6110     1.5230 ca         1 XDI      -0.027500
      9 CAJ         -1.2400     1.1190     0.3130 ca         1 XDI      -0.027500
     10 CAK          1.1650    -1.2010     0.3270 ca         1 XDI      -0.027500
     11 CAL          2.3970     0.5740     1.4360 ca         1 XDI      -0.027500
     12 CAM         -3.5090     0.5300    -0.3530 ca         1 XDI       0.198600
     13 CAN          3.4150    -0.6400    -0.4200 ca         1 XDI       0.198600
     14 CAO         -3.5510    -0.4260     0.6780 ca         1 XDI      -0.094650
     15 CAP         -2.3480     1.3030    -0.5320 ca         1 XDI      -0.094650
     16 CAQ          2.2500    -1.4190    -0.5380 ca         1 XDI      -0.094650
     17 CAR          3.4840     0.3560     0.5710 ca         1 XDI      -0.094650
     18 CAS         -1.2660     0.1590     1.3500 ca         1 XDI      -0.116800
     19 CAT          1.2170    -0.2010     1.3250 ca         1 XDI      -0.116800
     20 CAU         -0.0130    -0.0030     2.2440 c3         1 XDI       0.061600
     21 HAA          0.9090     1.1890     3.8520 hc         1 XDI       0.042533
     22 HAAA         0.2330     2.1690     2.5310 hc         1 XDI       0.042533
     23 HAAB        -0.8410     1.4020     3.7090 hc         1 XDI       0.042533
     24 HAB         -0.8910    -1.1300     3.9220 hc         1 XDI       0.042533
     25 HABA        -0.2500    -2.1620     2.6230 hc         1 XDI       0.042533
     26 HABB         0.8540    -1.3490     3.7420 hc         1 XDI       0.042533
     27 HOAC        -4.3560     1.4120    -1.8180 ho         1 XDI       0.485000
     28 HOAD         5.1770    -0.2120    -1.0150 ho         1 XDI       0.485000
     29 HAI         -2.5190    -1.3570     2.3080 ha         1 XDI       0.135500
     30 HAJ         -0.3520     1.7270     0.1550 ha         1 XDI       0.135500
     31 HAK          0.2730    -1.8140     0.2170 ha         1 XDI       0.135500
     32 HAL          2.4940     1.3510     2.1890 ha         1 XDI       0.135500
     33 OAC         -4.5860     0.7080    -1.1740 oh         1 XDI      -0.505100
@<TRIPOS>BOND
     1     1    20 1   
     2     1    21 1   
     3     1    22 1   
     4     1    23 1   
     5     2    20 1   
     6     2    24 1   
     7     2    25 1   
     8     2    26 1   
     9     3    13 1   
    10     3    28 1   
    11     4    14 1   
    12     5    15 1   
    13     6    16 1   
    14     7    17 1   
    15     8    14 ar  
    16     8    18 ar  
    17     8    29 1   
    18     9    15 ar  
    19     9    18 ar  
    20     9    30 1   
    21    10    16 ar  
    22    10    19 ar  
    23    10    31 1   
    24    11    17 ar  
    25    11    19 ar  
    26    11    32 1   
    27    12    14 ar  
    28    12    15 ar  
    29    12    33 1   
    30    13    16 ar  
    31    13    17 ar  
    32    18    20 1   
    33    19    20 1   
    34    27    33 1   
@<TRIPOS>SUBSTRUCTURE
     1 XDI         1 TEMP              0 ****  ****    0 ROOT
