@<TRIPOS>MOLECULE
XDI
   33    34     1     0     0
SMALL
abcg2


@<TRIPOS>ATOM
      1 CAA          0.0930     1.2500     3.0830 c3         1 XDI      -0.087100
      2 CAB         -0.1040    -1.2200     3.1270 c3         1 XDI      -0.087100
      3 OAD          4.4680    -0.9280    -1.1880 oh         1 XDI      -0.505100
      4 BRAE        -5.0410    -1.4550     0.9250 br         1 XDI      -0.080100
      5 BRAF        -2.2840     2.6470    -1.8320 br         1 XDI      -0.080100
      6 BRAG         2.2330    -2.7880    -1.7590 br         1 XDI      -0.080100
      7 BRAH         4.9800     1.4460     0.7990 br         1 XDI      -0.080100
      8 CAI         -2.3940    -0.6080     1.4770 ca         1 XDI      -0.027500
      9 CAJ         -1.2420     1.1220     0.3140 ca         1 XDI      -0.027500
     10 CAK          1.1950    -1.1940     0.3390 ca         1 XDI      -0.027500
     11 CAL          2.3520     0.5860     1.4170 ca         1 XDI      -0.027500
     12 CAM         -3.5190     0.5680    -0.3320 ca         1 XDI       0.198600
     13 CAN          3.4550    -0.6490    -0.3670 ca         1 XDI       0.198600
     14 CAO         -3.5020    -0.4010     0.6700 ca         1 XDI      -0.094650
     15 CAP         -2.3500     1.3220    -0.4870 ca         1 XDI      -0.094650
     16 CAQ          2.2890    -1.4170    -0.4700 ca         1 XDI      -0.094650
     17 CAR          3.4500     0.3560     0.5980 ca         1 XDI      -0.094650
     18 CAS         -1.2460     0.1540     1.3150 ca         1 XDI      -0.116800
     19 CAT          1.2080    -0.1860     1.3030 ca         1 XDI      -0.116800
     20 CAU         -0.0120    -0.0010     2.2000 c3         1 XDI       0.061600
     21 HAA          0.9360     1.1810     3.7710 hc         1 XDI       0.042533
     22 HAAA         0.2020     2.1640     2.4980 hc         1 XDI       0.042533
     23 HAAB        -0.8120     1.3470     3.6820 hc         1 XDI       0.042533
     24 HAB         -0.9370    -1.1260     3.8260 hc         1 XDI       0.042533
     25 HABA        -0.2230    -2.1550     2.5770 hc         1 XDI       0.042533
     26 HABB         0.8100    -1.2960     3.7160 hc         1 XDI       0.042533
     27 HOAC        -4.5540     1.4250    -1.7030 ho         1 XDI       0.485000
     28 HOAD         5.2310    -0.3560    -1.0360 ho         1 XDI       0.485000
     29 HAI         -2.4410    -1.3750     2.2370 ha         1 XDI       0.135500
     30 HAJ         -0.3560     1.7250     0.1520 ha         1 XDI       0.135500
     31 HAK          0.3110    -1.8080     0.2160 ha         1 XDI       0.135500
     32 HAL          2.4080     1.3820     2.1460 ha         1 XDI       0.135500
     33 OAC         -4.6250     0.7050    -1.0640 oh         1 XDI      -0.505100
@<TRIPOS>BOND
     1     1    20 1   
     2     1    21 1   
     3     1    22 1   
     4     1    23 1   
     5     2    20 1   
     6     2    24 1   
     7     2    25 1   
     8     2    26 1   
     9     3    13 1   
    10     3    28 1   
    11     4    14 1   
    12     5    15 1   
    13     6    16 1   
    14     7    17 1   
    15     8    14 ar  
    16     8    18 ar  
    17     8    29 1   
    18     9    15 ar  
    19     9    18 ar  
    20     9    30 1   
    21    10    16 ar  
    22    10    19 ar  
    23    10    31 1   
    24    11    17 ar  
    25    11    19 ar  
    26    11    32 1   
    27    12    14 ar  
    28    12    15 ar  
    29    12    33 1   
    30    13    16 ar  
    31    13    17 ar  
    32    18    20 1   
    33    19    20 1   
    34    27    33 1   
@<TRIPOS>SUBSTRUCTURE
     1 XDI         1 TEMP              0 ****  ****    0 ROOT
