@<TRIPOS>MOLECULE
XDJ
   43    45     1     0     0
SMALL
abcg2


@<TRIPOS>ATOM
      1 C02        -33.7770     3.1750   -15.3530 c          1 XDJ       0.719000
      2 C03        -35.0180     3.9160   -15.9080 c3         1 XDJ      -0.057000
      3 C05        -34.8390     6.3600   -16.4000 c5         1 XDJ       0.090700
      4 C06        -35.8310     6.4950   -17.5680 c5         1 XDJ       0.130500
      5 C08        -35.1190     7.5090   -18.4560 c5         1 XDJ      -0.075400
      6 C09        -33.6230     7.1610   -18.3430 c5         1 XDJ      -0.085400
      7 C10        -33.4720     6.2800   -17.0820 c5         1 XDJ      -0.083400
      8 C11        -35.5410     5.4860   -14.2010 c          1 XDJ       0.589100
      9 C12        -35.6630     6.9320   -13.7010 c3         1 XDJ      -0.014400
     10 C14        -37.3610     6.9710   -11.8530 cc         1 XDJ       0.405400
     11 C16        -35.2720     6.7740   -11.2490 cc         1 XDJ       0.164400
     12 C17        -36.1230     6.7330   -10.1600 cd         1 XDJ       0.081500
     13 C18        -35.5600     6.5740    -8.8610 c          1 XDJ       0.526500
     14 C20        -33.4120     6.5340   -10.0790 cd         1 XDJ       0.726800
     15 N04        -35.1540     5.2910   -15.4710 n          1 XDJ      -0.362800
     16 N07        -37.1860     6.8730   -17.2370 n8         1 XDJ      -0.997200
     17 N13        -36.0770     6.9480   -12.3270 na         1 XDJ      -0.150500
     18 N15        -37.4290     6.8570   -10.5620 nd         1 XDJ      -0.611000
     19 N19        -34.1630     6.4800    -8.9390 ns         1 XDJ      -0.460400
     20 N22        -33.9350     6.6780   -11.2700 nc         1 XDJ      -0.667100
     21 O01        -33.7740     1.9480   -15.5760 o          1 XDJ      -0.723500
     22 O24        -35.8190     4.5690   -13.4430 o          1 XDJ      -0.574100
     23 H031       -34.9620     3.9020   -16.9990 h1         1 XDJ       0.036200
     24 H032       -35.9180     3.3550   -15.6520 h1         1 XDJ       0.036200
     25 H051       -34.8780     7.3080   -15.8600 h1         1 XDJ       0.027700
     26 H061       -35.8720     5.5360   -18.1000 h1         1 XDJ       0.077700
     27 H081       -35.3080     8.5140   -18.0660 hc         1 XDJ       0.037200
     28 H082       -35.4830     7.4910   -19.4830 hc         1 XDJ       0.037200
     29 H092       -33.2810     6.6220   -19.2260 hc         1 XDJ       0.034200
     30 H091       -33.0160     8.0650   -18.2770 hc         1 XDJ       0.034200
     31 H102       -33.2420     5.2530   -17.3650 hc         1 XDJ       0.074200
     32 H101       -32.6700     6.6130   -16.4240 hc         1 XDJ       0.074200
     33 H122       -34.7140     7.4630   -13.7840 h1         1 XDJ       0.068700
     34 H121       -36.3950     7.4870   -14.2880 h1         1 XDJ       0.068700
     35 H141       -38.2000     7.0880   -12.5230 h5         1 XDJ       0.050100
     36 H071       -37.6000     6.1840   -16.6200 hn         1 XDJ       0.392500
     37 H3         -37.1810     7.7470   -16.7220 hn         1 XDJ       0.392500
     38 H191       -33.6850     6.3720    -8.0530 hn         1 XDJ       0.311500
     39 H211       -31.5330     6.3450   -10.7740 hn         1 XDJ       0.498000
     40 H212       -31.6630     6.1360    -9.0850 hn         1 XDJ       0.498000
     41 O1         -32.9060     3.8470   -14.7760 o          1 XDJ      -0.723500
     42 N21        -32.0780     6.4690    -9.9380 nv         1 XDJ      -1.049200
     43 O23        -36.1230     6.5140    -7.7810 o          1 XDJ      -0.546000
@<TRIPOS>BOND
     1     1     2 1   
     2     1    21 1   
     3     1    41 1   
     4     2    15 1   
     5     2    23 1   
     6     2    24 1   
     7     3     4 1   
     8     3     7 1   
     9     3    15 1   
    10     3    25 1   
    11     4     5 1   
    12     4    16 1   
    13     4    26 1   
    14     5     6 1   
    15     5    27 1   
    16     5    28 1   
    17     6     7 1   
    18     6    29 1   
    19     6    30 1   
    20     7    31 1   
    21     7    32 1   
    22     8     9 1   
    23     8    15 1   
    24     8    22 2   
    25     9    17 1   
    26     9    33 1   
    27     9    34 1   
    28    10    17 1   
    29    10    18 2   
    30    10    35 1   
    31    11    12 2   
    32    11    17 1   
    33    11    20 1   
    34    12    13 1   
    35    12    18 1   
    36    13    19 1   
    37    13    43 2   
    38    14    19 1   
    39    14    20 2   
    40    14    42 1   
    41    16    36 1   
    42    16    37 1   
    43    19    38 1   
    44    39    42 1   
    45    40    42 1   
@<TRIPOS>SUBSTRUCTURE
     1 XDJ         1 TEMP              0 ****  ****    0 ROOT
