@<TRIPOS>MOLECULE
XDJ
   43    45     1     0     0
SMALL
No Charge or Current Charge


@<TRIPOS>ATOM
      1 C02        -34.6630     2.8090   -15.4640 c          1 XDJ       0.719000
      2 C03        -35.5080     3.8480   -16.2550 c3         1 XDJ      -0.057000
      3 C05        -35.1780     6.4840   -16.4000 c5         1 XDJ       0.090700
      4 C06        -35.4570     6.3900   -17.9370 c5         1 XDJ       0.130500
      5 C08        -34.6660     7.6460   -18.3830 c5         1 XDJ      -0.075400
      6 C09        -33.3220     7.5230   -17.5890 c5         1 XDJ      -0.085400
      7 C10        -33.6270     6.5360   -16.4130 c5         1 XDJ      -0.083400
      8 C11        -36.0200     5.3420   -14.3080 c          1 XDJ       0.589100
      9 C12        -35.9340     6.7120   -13.5930 c3         1 XDJ      -0.014400
     10 C14        -37.3430     6.4890   -11.4720 cc         1 XDJ       0.405400
     11 C16        -35.1690     6.7260   -11.1590 cc         1 XDJ       0.164400
     12 C17        -35.8130     6.6160    -9.9500 cd         1 XDJ       0.081500
     13 C18        -35.0070     6.6670    -8.6950 c          1 XDJ       0.526500
     14 C20        -33.1560     6.9160   -10.1860 cd         1 XDJ       0.726800
     15 N04        -35.5870     5.2330   -15.6640 n          1 XDJ      -0.362800
     16 N07        -36.8850     6.4400   -18.3090 n8         1 XDJ      -0.997200
     17 N13        -36.1360     6.6520   -12.1290 na         1 XDJ      -0.150500
     18 N15        -37.1820     6.4690   -10.1510 nd         1 XDJ      -0.611000
     19 N19        -33.6740     6.8190    -8.9440 ns         1 XDJ      -0.460400
     20 N22        -33.8070     6.8820   -11.3230 nc         1 XDJ      -0.667100
     21 O01        -35.1110     1.6770   -15.3380 o          1 XDJ      -0.723500
     22 O24        -36.4710     4.3660   -13.7150 o          1 XDJ      -0.574100
     23 H031       -35.0720     3.8740   -17.2570 h1         1 XDJ       0.036200
     24 H032       -36.5290     3.4570   -16.3530 h1         1 XDJ       0.036200
     25 H051       -35.6200     7.4000   -15.9880 h1         1 XDJ       0.027700
     26 H061       -35.0090     5.5010   -18.4020 h1         1 XDJ       0.077700
     27 H081       -35.1930     8.5710   -18.1180 hc         1 XDJ       0.037200
     28 H082       -34.5020     7.6700   -19.4670 hc         1 XDJ       0.037200
     29 H092       -32.5150     7.1360   -18.2220 hc         1 XDJ       0.034200
     30 H091       -32.9940     8.5020   -17.2210 hc         1 XDJ       0.034200
     31 H102       -33.1880     5.5520   -16.6170 hc         1 XDJ       0.074200
     32 H101       -33.2110     6.8800   -15.4600 hc         1 XDJ       0.074200
     33 H122       -34.9460     7.1430   -13.7910 h1         1 XDJ       0.068700
     34 H121       -36.6910     7.3720   -14.0300 h1         1 XDJ       0.068700
     35 H141       -38.2820     6.3960   -12.0040 h5         1 XDJ       0.050100
     36 H071       -37.3680     5.6530   -17.8600 hn         1 XDJ       0.392500
     37 H3         -37.3170     7.2630   -17.8740 hn         1 XDJ       0.392500
     38 H191       -33.0700     6.8810    -8.1420 hn         1 XDJ       0.311500
     39 H211       -31.4930     6.9270   -11.2190 hn         1 XDJ       0.498000
     40 H212       -31.2810     6.6490    -9.5450 hn         1 XDJ       0.498000
     41 O1         -33.5620     3.1450   -15.0480 o          1 XDJ      -0.723500
     42 N21        -31.8460     7.0570   -10.2800 nv         1 XDJ      -1.049200
     43 O23        -35.4480     6.5860    -7.5570 o          1 XDJ      -0.546000
@<TRIPOS>BOND
     1     1     2 1   
     2     1    21 1   
     3     1    41 1   
     4     2    15 1   
     5     2    23 1   
     6     2    24 1   
     7     3     4 1   
     8     3     7 1   
     9     3    15 1   
    10     3    25 1   
    11     4     5 1   
    12     4    16 1   
    13     4    26 1   
    14     5     6 1   
    15     5    27 1   
    16     5    28 1   
    17     6     7 1   
    18     6    29 1   
    19     6    30 1   
    20     7    31 1   
    21     7    32 1   
    22     8     9 1   
    23     8    15 1   
    24     8    22 2   
    25     9    17 1   
    26     9    33 1   
    27     9    34 1   
    28    10    17 1   
    29    10    18 2   
    30    10    35 1   
    31    11    12 2   
    32    11    17 1   
    33    11    20 1   
    34    12    13 1   
    35    12    18 1   
    36    13    19 1   
    37    13    43 2   
    38    14    19 1   
    39    14    20 2   
    40    14    42 1   
    41    16    36 1   
    42    16    37 1   
    43    19    38 1   
    44    39    42 1   
    45    40    42 1   
@<TRIPOS>SUBSTRUCTURE
     1 XDJ         1 TEMP              0 ****  ****    0 ROOT
