@<TRIPOS>MOLECULE
XDK
   21    22     1     0     0
SMALL
bcc


@<TRIPOS>ATOM
      1 C7A         -2.9170     1.4070    -0.2490 ca         1 XDK      -0.258300
      2 C3A         -3.7380     0.3330     0.0650 ca         1 XDK       0.413200
      3 N2A         -3.2710    -0.8770     0.3490 nb         1 XDK      -0.671000
      4 C1A         -1.9590    -1.0610     0.3170 ca         1 XDK       0.423200
      5 C5A         -1.0420    -0.0580     0.0040 cp         1 XDK      -0.276800
      6 C4           0.4110    -0.3180    -0.0240 cp         1 XDK       0.560800
      7 N3           1.2020     0.7380     0.1120 nb         1 XDK      -0.791000
      8 C5           0.9320    -1.5970    -0.2020 ca         1 XDK      -0.429600
      9 C6           2.3130    -1.6950    -0.2120 ca         1 XDK       0.483200
     10 N1           3.1200    -0.6580    -0.0720 nb         1 XDK      -0.774000
     11 C2           2.5220     0.5320     0.0780 ca         1 XDK       0.920900
     12 N7           3.3140     1.6080     0.1960 nv         1 XDK      -0.966500
     13 C9          -1.5490     1.2090    -0.2740 ca         1 XDK      -0.048000
     14 H7A         -3.3460     2.3740    -0.4710 ha         1 XDK       0.144000
     15 H3A         -4.8140     0.4560     0.0900 h4         1 XDK       0.020100
     16 H9          -0.8760     2.0210    -0.5140 ha         1 XDK       0.157000
     17 H1A         -1.6150    -2.0580     0.5710 h4         1 XDK       0.021100
     18 H5           0.3140    -2.4700    -0.3450 ha         1 XDK       0.154000
     19 H6           2.7890    -2.6610    -0.3450 h4         1 XDK       0.021100
     20 H71N         2.9180     2.5120     0.3820 hn         1 XDK       0.449300
     21 H72N         4.3110     1.4970     0.2550 hn         1 XDK       0.449300
@<TRIPOS>BOND
     1     1     2 ar  
     2     1    13 ar  
     3     1    14 1   
     4     2     3 ar  
     5     2    15 1   
     6     3     4 ar  
     7     4     5 ar  
     8     4    17 1   
     9     5     6 1   
    10     5    13 ar  
    11     6     7 ar  
    12     6     8 ar  
    13     7    11 ar  
    14     8     9 ar  
    15     8    18 1   
    16     9    10 ar  
    17     9    19 1   
    18    10    11 ar  
    19    11    12 1   
    20    12    20 1   
    21    12    21 1   
    22    13    16 1   
@<TRIPOS>SUBSTRUCTURE
     1 XDK         1 TEMP              0 ****  ****    0 ROOT
