@<TRIPOS>MOLECULE
XDK
   21    22     1     0     0
SMALL
No Charge or Current Charge


@<TRIPOS>ATOM
      1 C7A         -2.9780     1.4370    -0.2050 ca         1 XDK      -0.175000
      2 C3A         -3.8090     0.3400     0.0580 ca         1 XDK       0.347900
      3 N2A         -3.3290    -0.9030     0.2820 nb         1 XDK      -0.671000
      4 C1A         -1.9880    -1.0820     0.2430 ca         1 XDK       0.357900
      5 C5A         -1.0540    -0.0450    -0.0170 cp         1 XDK      -0.211500
      6 C4           0.4230    -0.3090    -0.0430 cp         1 XDK       0.232500
      7 N3           1.2460     0.7580     0.0280 nb         1 XDK      -0.265000
      8 C5           0.9810    -1.6080    -0.1470 ca         1 XDK      -0.281000
      9 C6           2.3790    -1.7370    -0.1630 ca         1 XDK       0.154900
     10 N1           3.1830    -0.6600    -0.0850 nb         1 XDK      -0.248000
     11 C2           2.5650     0.5250     0.0040 ca         1 XDK       0.394900
     12 N7           3.3660     1.6150     0.0820 nv         1 XDK      -1.076900
     13 C9          -1.5880     1.2520    -0.2430 ca         1 XDK      -0.030000
     14 H7A         -3.4120     2.4180    -0.3780 ha         1 XDK       0.126000
     15 H3A         -4.8920     0.4570     0.0930 h4         1 XDK       0.020100
     16 H9          -0.9410     2.1020    -0.4520 ha         1 XDK       0.139000
     17 H1A         -1.6550    -2.0980     0.4450 h4         1 XDK       0.021100
     18 H5           0.3610    -2.4950    -0.2260 ha         1 XDK       0.136000
     19 H6           2.8610    -2.7100    -0.2430 h4         1 XDK       0.021100
     20 H71N         2.9520     2.4960     0.3800 hn         1 XDK       0.504500
     21 H72N         4.3510     1.4800     0.2980 hn         1 XDK       0.504500
@<TRIPOS>BOND
     1     1     2 ar  
     2     1    13 ar  
     3     1    14 1   
     4     2     3 ar  
     5     2    15 1   
     6     3     4 ar  
     7     4     5 ar  
     8     4    17 1   
     9     5     6 1   
    10     5    13 ar  
    11     6     7 ar  
    12     6     8 ar  
    13     7    11 ar  
    14     8     9 ar  
    15     8    18 1   
    16     9    10 ar  
    17     9    19 1   
    18    10    11 ar  
    19    11    12 1   
    20    12    20 1   
    21    12    21 1   
    22    13    16 1   
@<TRIPOS>SUBSTRUCTURE
     1 XDK         1 TEMP              0 ****  ****    0 ROOT
