@<TRIPOS>MOLECULE
XDL
   17    17     1     0     0
SMALL
No Charge or Current Charge


@<TRIPOS>ATOM
      1 N1          -1.3070    -0.1870    -0.6660 ns         1 XDL      -0.497900
      2 C2          -0.8130     0.1790     0.5690 c          1 XDL       0.526000
      3 C3           0.7400     0.3430     0.7400 c6         1 XDL       0.102300
      4 O3           1.2130    -0.3340     1.9270 oh         1 XDL      -0.650000
      5 C4           1.5560    -0.1180    -0.4930 c6         1 XDL      -0.077400
      6 C5           0.8730     0.3360    -1.8000 c6         1 XDL      -0.094400
      7 C6          -0.5410    -0.2710    -1.9200 c6         1 XDL       0.111000
      8 O2          -1.5810     0.3460     1.5050 o          1 XDL      -0.580000
      9 H1          -2.3120    -0.3110    -0.7150 hn         1 XDL       0.316500
     10 H3           0.8910     1.4270     0.8450 h1         1 XDL       0.049700
     11 HA           0.5480    -0.1540     2.6320 ho         1 XDL       0.473000
     12 H4C1         2.5770     0.2810    -0.4380 hc         1 XDL       0.063200
     13 H4C2         1.6460    -1.2140    -0.4940 hc         1 XDL       0.063200
     14 H5C1         0.8060     1.4330    -1.8180 hc         1 XDL       0.055200
     15 H5C2         1.4780     0.0450    -2.6700 hc         1 XDL       0.055200
     16 H6C1        -1.1010     0.2340    -2.7190 h1         1 XDL       0.042200
     17 H6C2        -0.4580    -1.3340    -2.1900 h1         1 XDL       0.042200
@<TRIPOS>BOND
     1     1     2 1   
     2     1     7 1   
     3     1     9 1   
     4     2     3 1   
     5     2     8 2   
     6     3     4 1   
     7     3     5 1   
     8     3    10 1   
     9     4    11 1   
    10     5     6 1   
    11     5    12 1   
    12     5    13 1   
    13     6     7 1   
    14     6    14 1   
    15     6    15 1   
    16     7    16 1   
    17     7    17 1   
@<TRIPOS>SUBSTRUCTURE
     1 XDL         1 TEMP              0 ****  ****    0 ROOT
