@<TRIPOS>MOLECULE
XDL
   17    17     1     0     0
SMALL
abcg2


@<TRIPOS>ATOM
      1 N1          -1.2740    -0.0810    -0.6640 ns         1 XDL      -0.497900
      2 C2          -0.7690     0.0430     0.5690 c          1 XDL       0.526000
      3 C3           0.7170     0.3700     0.6910 c6         1 XDL       0.102300
      4 O3           1.2190    -0.1110     1.9060 oh         1 XDL      -0.650000
      5 C4           1.5170    -0.1780    -0.4750 c6         1 XDL      -0.077400
      6 C5           0.8890     0.3250    -1.7650 c6         1 XDL      -0.094400
      7 C6          -0.5270    -0.2020    -1.9060 c6         1 XDL       0.111000
      8 O2          -1.4540    -0.0460     1.5830 o          1 XDL      -0.580000
      9 H1          -2.2630    -0.2790    -0.7150 hn         1 XDL       0.316500
     10 H3           0.7750     1.4720     0.6480 h1         1 XDL       0.049700
     11 HA           0.5260     0.0020     2.5690 ho         1 XDL       0.473000
     12 H4C1         2.5570     0.1440    -0.3970 hc         1 XDL       0.063200
     13 H4C2         1.5110    -1.2730    -0.4510 hc         1 XDL       0.063200
     14 H5C1         0.8860     1.4190    -1.7700 hc         1 XDL       0.055200
     15 H5C2         1.4670     0.0070    -2.6330 hc         1 XDL       0.055200
     16 H6C1        -1.0620     0.3440    -2.6840 h1         1 XDL       0.042200
     17 H6C2        -0.5020    -1.2530    -2.2090 h1         1 XDL       0.042200
@<TRIPOS>BOND
     1     1     2 1   
     2     1     7 1   
     3     1     9 1   
     4     2     3 1   
     5     2     8 2   
     6     3     4 1   
     7     3     5 1   
     8     3    10 1   
     9     4    11 1   
    10     5     6 1   
    11     5    12 1   
    12     5    13 1   
    13     6     7 1   
    14     6    14 1   
    15     6    15 1   
    16     7    16 1   
    17     7    17 1   
@<TRIPOS>SUBSTRUCTURE
     1 XDL         1 TEMP              0 ****  ****    0 ROOT
