@<TRIPOS>MOLECULE
XDM
   41    42     1     0     0
SMALL
No Charge or Current Charge


@<TRIPOS>ATOM
      1 N1          -0.8030     0.3680    -0.9490 ns         1 XDM      -0.521900
      2 C2           3.5480    -0.9690     0.0050 cc         1 XDM      -0.266600
      3 C3           4.9890    -1.2470     0.3720 c          1 XDM       0.613700
      4 C4           5.8540    -0.2450     1.1380 c3         1 XDM      -0.191100
      5 C5           2.7190     0.1850     0.2660 cc         1 XDM      -0.010300
      6 C6           3.1230     1.4370     1.0240 c3         1 XDM      -0.027100
      7 C9           0.3050     0.8890    -0.3190 c          1 XDM       0.641700
      8 C8           1.4770    -0.0470    -0.3060 cd         1 XDM      -0.266600
      9 C10         -2.0850     1.0610    -1.0780 c3         1 XDM       0.155300
     10 C11         -3.0020     0.7570     0.0970 ca         1 XDM      -0.088300
     11 C12         -3.0150     1.6000     1.2270 ca         1 XDM      -0.082000
     12 C13         -3.8580     1.3170     2.3150 ca         1 XDM      -0.100000
     13 C14         -4.6950     0.1870     2.2810 ca         1 XDM      -0.097000
     14 C15         -4.6840    -0.6560     1.1580 ca         1 XDM       0.119000
     15 O1           0.2920     2.0110     0.1630 o          1 XDM      -0.580100
     16 C7           3.6470     2.5590     0.1040 c3         1 XDM      -0.085100
     17 O            5.5310    -2.3010     0.0640 o          1 XDM      -0.558100
     18 C            2.7910    -1.8840    -0.7000 cd         1 XDM      -0.063300
     19 C1           3.1240    -3.2570    -1.2390 c3         1 XDM      -0.035800
     20 N            1.5350    -1.3230    -0.8830 na         1 XDM      -0.096000
     21 C16         -3.8420    -0.3740     0.0700 ca         1 XDM      -0.094000
     22 Cl          -5.7290    -2.0710     1.1150 cl         1 XDM      -0.210000
     23 H12         -0.7310    -0.5670    -1.3200 hn         1 XDM       0.312500
     24 H4           5.7660     0.7510     0.7000 hc         1 XDM       0.059700
     25 H6           5.4580    -0.1430     2.1530 hc         1 XDM       0.059700
     26 H5           6.9030    -0.5600     1.1850 hc         1 XDM       0.059700
     27 H7           2.2700     1.8230     1.5910 hc         1 XDM       0.062700
     28 H8           3.8450     1.2280     1.8120 hc         1 XDM       0.062700
     29 H14         -1.9160     2.1440    -1.1540 h1         1 XDM       0.054700
     30 H13         -2.5650     0.7380    -2.0110 h1         1 XDM       0.054700
     31 H15         -2.3670     2.4740     1.2620 ha         1 XDM       0.122000
     32 H16         -3.8630     1.9710     3.1840 ha         1 XDM       0.120000
     33 H17         -5.3480    -0.0340     3.1210 ha         1 XDM       0.130000
     34 H11          3.9720     3.4220     0.6980 hc         1 XDM       0.034367
     35 H9           4.4950     2.2150    -0.4990 hc         1 XDM       0.034367
     36 H10          2.8610     2.8940    -0.5830 hc         1 XDM       0.034367
     37 H1           3.4150    -3.9390    -0.4310 hc         1 XDM       0.059033
     38 H2           2.2680    -3.7080    -1.7540 hc         1 XDM       0.059033
     39 H3           3.9500    -3.2090    -1.9590 hc         1 XDM       0.059033
     40 H            0.7820    -1.7860    -1.3790 hn         1 XDM       0.346000
     41 H18         -3.8410    -1.0350    -0.7930 ha         1 XDM       0.120000
@<TRIPOS>BOND
     1     1     7 1   
     2     1     9 1   
     3     1    23 1   
     4     2     3 1   
     5     2     5 1   
     6     2    18 2   
     7     3     4 1   
     8     3    17 2   
     9     4    24 1   
    10     4    25 1   
    11     4    26 1   
    12     5     6 1   
    13     5     8 2   
    14     6    16 1   
    15     6    27 1   
    16     6    28 1   
    17     7     8 1   
    18     7    15 2   
    19     8    20 1   
    20     9    10 1   
    21     9    29 1   
    22     9    30 1   
    23    10    11 ar  
    24    10    21 ar  
    25    11    12 ar  
    26    11    31 1   
    27    12    13 ar  
    28    12    32 1   
    29    13    14 ar  
    30    13    33 1   
    31    14    21 ar  
    32    14    22 1   
    33    16    34 1   
    34    16    35 1   
    35    16    36 1   
    36    18    19 1   
    37    18    20 1   
    38    19    37 1   
    39    19    38 1   
    40    19    39 1   
    41    20    40 1   
    42    21    41 1   
@<TRIPOS>SUBSTRUCTURE
     1 XDM         1 TEMP              0 ****  ****    0 ROOT
