@<TRIPOS>MOLECULE
XDN
   20    20     1     0     0
SMALL
No Charge or Current Charge


@<TRIPOS>ATOM
      1 C1          -1.2990     1.4210     0.2010 c6         1 XDN       0.115300
      2 C2          -1.3280    -0.0910    -0.1930 c6         1 XDN       0.115800
      3 O2          -2.5070    -0.7220     0.3550 oh         1 XDN      -0.707000
      4 C3          -0.0170    -0.7910     0.3030 c6         1 XDN       0.181300
      5 O3           0.0520    -2.1680    -0.1140 oh         1 XDN      -0.645000
      6 C4           1.2400    -0.0390    -0.2320 c6         1 XDN       0.115800
      7 O4           2.4430    -0.6710     0.2530 oh         1 XDN      -0.707000
      8 C5           1.1790     1.4610     0.1880 c6         1 XDN       0.115300
      9 N5          -0.0720     2.1150    -0.2820 n7         1 XDN      -0.839400
     10 H11         -2.1870     1.9240    -0.2100 h1         1 XDN       0.062950
     11 H12         -1.3540     1.5070     1.2970 h1         1 XDN       0.062950
     12 H2          -1.3510    -0.1570    -1.2910 h1         1 XDN       0.035700
     13 HO2         -3.2490    -0.5390    -0.2670 ho         1 XDN       0.506000
     14 H3           0.0010    -0.7360     1.4030 h1         1 XDN       0.057700
     15 HO3          1.0060    -2.3940    -0.0320 ho         1 XDN       0.456000
     16 H4           1.2220    -0.0820    -1.3310 h1         1 XDN       0.035700
     17 HO4          3.2060    -0.2280    -0.1890 ho         1 XDN       0.506000
     18 H51          1.2400     1.5340     1.2850 h1         1 XDN       0.062950
     19 H52          2.0480     1.9960    -0.2250 h1         1 XDN       0.062950
     20 HN5         -0.0770     2.1210    -1.3120 hn         1 XDN       0.408000
@<TRIPOS>BOND
     1     1     2 1   
     2     1     9 1   
     3     1    10 1   
     4     1    11 1   
     5     2     3 1   
     6     2     4 1   
     7     2    12 1   
     8     3    13 1   
     9     4     5 1   
    10     4     6 1   
    11     4    14 1   
    12     5    15 1   
    13     6     7 1   
    14     6     8 1   
    15     6    16 1   
    16     7    17 1   
    17     8     9 1   
    18     8    18 1   
    19     8    19 1   
    20     9    20 1   
@<TRIPOS>SUBSTRUCTURE
     1 XDN         1 TEMP              0 ****  ****    0 ROOT
