@<TRIPOS>MOLECULE
XDN
   20    20     1     0     0
SMALL
abcg2


@<TRIPOS>ATOM
      1 C1          -1.2670     1.3750     0.1700 c6         1 XDN       0.115300
      2 C2          -1.2610    -0.1030    -0.2350 c6         1 XDN       0.115800
      3 O2          -2.3620    -0.7920     0.3130 oh         1 XDN      -0.707000
      4 C3           0.0110    -0.7680     0.2630 c6         1 XDN       0.181300
      5 O3           0.0300    -2.1040    -0.1800 oh         1 XDN      -0.645000
      6 C4           1.2260     0.0070    -0.2360 c6         1 XDN       0.115800
      7 O4           2.3710    -0.6220     0.3050 oh         1 XDN      -0.707000
      8 C5           1.1310     1.4760     0.1770 c6         1 XDN       0.115300
      9 N5          -0.0960     2.1130    -0.2620 n7         1 XDN      -0.839400
     10 H11         -2.1600     1.8610    -0.2330 h1         1 XDN       0.062950
     11 H12         -1.3390     1.4400     1.2620 h1         1 XDN       0.062950
     12 H2          -1.2720    -0.1620    -1.3350 h1         1 XDN       0.035700
     13 HO2         -3.1640    -0.4310    -0.0770 ho         1 XDN       0.506000
     14 H3           0.0110    -0.7190     1.3660 h1         1 XDN       0.057700
     15 HO3          0.8780    -2.4820     0.0760 ho         1 XDN       0.456000
     16 H4           1.2400    -0.0470    -1.3350 h1         1 XDN       0.035700
     17 HO4          3.1390    -0.3500    -0.2070 ho         1 XDN       0.506000
     18 H51          1.1920     1.5440     1.2700 h1         1 XDN       0.062950
     19 H52          1.9840     2.0310    -0.2220 h1         1 XDN       0.062950
     20 HN5         -0.0950     2.1920    -1.2720 hn         1 XDN       0.408000
@<TRIPOS>BOND
     1     1     2 1   
     2     1     9 1   
     3     1    10 1   
     4     1    11 1   
     5     2     3 1   
     6     2     4 1   
     7     2    12 1   
     8     3    13 1   
     9     4     5 1   
    10     4     6 1   
    11     4    14 1   
    12     5    15 1   
    13     6     7 1   
    14     6     8 1   
    15     6    16 1   
    16     7    17 1   
    17     8     9 1   
    18     8    18 1   
    19     8    19 1   
    20     9    20 1   
@<TRIPOS>SUBSTRUCTURE
     1 XDN         1 TEMP              0 ****  ****    0 ROOT
