@<TRIPOS>MOLECULE
XDT
   19    18     1     0     0
SMALL
No Charge or Current Charge


@<TRIPOS>ATOM
      1 N            6.6320    38.5560     4.8320 n8         1 XDT      -0.889800
      2 CA           6.7850    37.1520     4.2670 c3         1 XDT      -0.002500
      3 C            5.7890    36.0220     4.7820 c          1 XDT       0.929600
      4 O            4.6230    36.3160     5.0330 o          1 XDT      -0.837300
      5 CB           6.9540    37.1680     2.7060 c3         1 XDT       0.141100
      6 OG1          6.0410    38.0930     2.0550 os         1 XDT      -0.440600
      7 CG2          6.8970    35.7890     2.0020 c3         1 XDT      -0.102100
      8 CD1          4.6230    37.8340     2.1250 c3         1 XDT       0.130700
      9 OXT          6.2610    34.9350     5.1020 o          1 XDT      -0.837300
     10 H            7.2370    39.1930     4.3030 hn         1 XDT       0.332800
     11 H2           5.6840    38.8830     4.6180 hn         1 XDT       0.332800
     12 HCA          7.7630    36.8160     4.6390 h1         1 XDT       0.044700
     13 HB           7.9690    37.5470     2.5260 h1         1 XDT       0.021700
     14 HG21         7.0400    35.9060     0.9220 hc         1 XDT       0.033700
     15 HG22         7.6980    35.1410     2.3770 hc         1 XDT       0.033700
     16 HG23         5.9430    35.2760     2.1690 hc         1 XDT       0.033700
     17 HD11         4.0840    38.5410     1.4810 h1         1 XDT       0.024033
     18 HD12         4.3750    36.8220     1.7830 h1         1 XDT       0.024033
     19 HD13         4.2450    37.9720     3.1440 h1         1 XDT       0.024033
@<TRIPOS>BOND
     1     1     2 1   
     2     1    10 1   
     3     1    11 1   
     4     2     3 1   
     5     2     5 1   
     6     2    12 1   
     7     3     4 1   
     8     3     9 1   
     9     5     6 1   
    10     5     7 1   
    11     5    13 1   
    12     6     8 1   
    13     7    14 1   
    14     7    15 1   
    15     7    16 1   
    16     8    17 1   
    17     8    18 1   
    18     8    19 1   
@<TRIPOS>SUBSTRUCTURE
     1 XDT         1 TEMP              0 ****  ****    0 ROOT
