@<TRIPOS>MOLECULE
XDT
   19    18     1     0     0
SMALL
bcc


@<TRIPOS>ATOM
      1 N            6.9250    38.4720     4.8900 n8         1 XDT      -0.889800
      2 CA           6.8460    37.1550     4.2770 c3         1 XDT      -0.002500
      3 C            5.6630    36.3460     4.8740 c          1 XDT       0.929600
      4 O            4.7240    36.9940     5.3850 o          1 XDT      -0.837300
      5 CB           6.8700    37.2160     2.7320 c3         1 XDT       0.141100
      6 OG1          5.8860    38.0850     2.1890 os         1 XDT      -0.440600
      7 CG2          6.9360    35.8610     2.0410 c3         1 XDT      -0.102100
      8 CD1          4.5930    37.5740     1.9910 c3         1 XDT       0.130700
      9 OXT          5.7450    35.1070     4.7780 o          1 XDT      -0.837300
     10 H            7.3430    39.1450     4.2590 hn         1 XDT       0.332800
     11 H2           5.9750    38.7750     5.0670 hn         1 XDT       0.332800
     12 HCA          7.7480    36.5830     4.5350 h1         1 XDT       0.044700
     13 HB           7.8100    37.7290     2.4890 h1         1 XDT       0.021700
     14 HG21         7.0980    35.9950     0.9700 hc         1 XDT       0.033700
     15 HG22         7.7760    35.2930     2.4380 hc         1 XDT       0.033700
     16 HG23         6.0450    35.2520     2.1790 hc         1 XDT       0.033700
     17 HD11         3.9720    38.4070     1.6590 h1         1 XDT       0.024033
     18 HD12         4.5490    36.8030     1.2140 h1         1 XDT       0.024033
     19 HD13         4.1390    37.1700     2.8980 h1         1 XDT       0.024033
@<TRIPOS>BOND
     1     1     2 1   
     2     1    10 1   
     3     1    11 1   
     4     2     3 1   
     5     2     5 1   
     6     2    12 1   
     7     3     4 1   
     8     3     9 1   
     9     5     6 1   
    10     5     7 1   
    11     5    13 1   
    12     6     8 1   
    13     7    14 1   
    14     7    15 1   
    15     7    16 1   
    16     8    17 1   
    17     8    18 1   
    18     8    19 1   
@<TRIPOS>SUBSTRUCTURE
     1 XDT         1 TEMP              0 ****  ****    0 ROOT
