@<TRIPOS>MOLECULE
XDV
   25    24     1     0     0
SMALL
No Charge or Current Charge


@<TRIPOS>ATOM
      1 N10        -37.6860    -4.9460    15.5370 nt         1 XDV      -0.619000
      2 C02        -38.9580    -8.3340     9.4550 c3         1 XDV       0.154800
      3 C03        -38.7250    -7.0700    10.3290 c3         1 XDV       0.153600
      4 C05        -39.1810    -4.6520    10.3040 c3         1 XDV       0.134600
      5 C06        -37.7460    -4.1720    10.6780 c3         1 XDV       0.121600
      6 C08        -37.8490    -4.5230    13.1140 c3         1 XDV       0.069600
      7 C09        -37.1690    -5.2300    14.3170 c          1 XDV       0.602100
      8 N01        -38.2010    -8.3150     8.1780 n8         1 XDV      -0.988200
      9 O04        -39.1460    -5.9060     9.5800 os         1 XDV      -0.461000
     10 O07        -37.2360    -4.8640    11.8440 os         1 XDV      -0.412000
     11 O11        -36.2250    -6.0020    14.2240 o          1 XDV      -0.566100
     12 H101       -37.2830    -5.3770    16.3560 hn         1 XDV       0.313500
     13 H102       -38.4650    -4.3090    15.6220 hn         1 XDV       0.313500
     14 H021       -40.0290    -8.4080     9.2230 h1         1 XDV       0.029700
     15 H022       -38.6700    -9.2300    10.0210 h1         1 XDV       0.029700
     16 H032       -39.3040    -7.1670    11.2570 h1         1 XDV       0.039700
     17 H031       -37.6610    -7.0120    10.5910 h1         1 XDV       0.039700
     18 H052       -39.6290    -3.8830     9.6600 h1         1 XDV       0.039700
     19 H051       -39.8180    -4.7270    11.1930 h1         1 XDV       0.039700
     20 H062       -37.0850    -4.3390     9.8180 h1         1 XDV       0.054700
     21 H061       -37.7700    -3.0900    10.8630 h1         1 XDV       0.054700
     22 H082       -37.7900    -3.4410    13.2910 h1         1 XDV       0.031200
     23 H081       -38.9080    -4.8070    13.1290 h1         1 XDV       0.031200
     24 H1         -38.5610    -9.0560     7.5650 hn         1 XDV       0.395500
     25 H2         -38.4470    -7.4480     7.6840 hn         1 XDV       0.395500
@<TRIPOS>BOND
     1     1     7 1   
     2     1    12 1   
     3     1    13 1   
     4     2     3 1   
     5     2     8 1   
     6     2    14 1   
     7     2    15 1   
     8     3     9 1   
     9     3    16 1   
    10     3    17 1   
    11     4     5 1   
    12     4     9 1   
    13     4    18 1   
    14     4    19 1   
    15     5    10 1   
    16     5    20 1   
    17     5    21 1   
    18     6     7 1   
    19     6    10 1   
    20     6    22 1   
    21     6    23 1   
    22     7    11 2   
    23     8    24 1   
    24     8    25 1   
@<TRIPOS>SUBSTRUCTURE
     1 XDV         1 TEMP              0 ****  ****    0 ROOT
