@<TRIPOS>MOLECULE
XDV
   25    24     1     0     0
SMALL
bcc


@<TRIPOS>ATOM
      1 N10        -37.4040    -5.2320    15.2290 nt         1 XDV      -0.686000
      2 C02        -39.0400    -8.2120     9.6080 c3         1 XDV       0.154800
      3 C03        -38.9910    -6.9530    10.4450 c3         1 XDV       0.130400
      4 C05        -39.1930    -4.5900    10.2000 c3         1 XDV       0.111400
      5 C06        -37.9210    -3.9320    10.7050 c3         1 XDV       0.098400
      6 C08        -37.8670    -4.5570    12.9750 c3         1 XDV       0.046400
      7 C09        -37.1420    -5.4820    13.9380 c          1 XDV       0.669100
      8 N01        -37.8290    -8.3720     8.8190 n8         1 XDV      -0.877800
      9 O04        -38.9860    -5.8350     9.5810 os         1 XDV      -0.414600
     10 O07        -37.2510    -4.6370    11.7270 os         1 XDV      -0.365600
     11 O11        -36.4180    -6.3840    13.5550 o          1 XDV      -0.566100
     12 H101       -37.0540    -5.8440    15.9480 hn         1 XDV       0.313500
     13 H102       -38.0030    -4.4770    15.5160 hn         1 XDV       0.313500
     14 H021       -39.9660    -8.2070     9.0150 h1         1 XDV       0.029700
     15 H022       -39.1190    -9.0560    10.2970 h1         1 XDV       0.029700
     16 H032       -39.8710    -6.9260    11.1030 h1         1 XDV       0.039700
     17 H031       -38.1030    -6.9730    11.0870 h1         1 XDV       0.039700
     18 H052       -39.6190    -3.9190     9.4470 h1         1 XDV       0.039700
     19 H051       -39.9430    -4.6720    10.9990 h1         1 XDV       0.039700
     20 H062       -37.2090    -3.8490     9.8810 h1         1 XDV       0.054700
     21 H061       -38.1680    -2.9100    11.0260 h1         1 XDV       0.054700
     22 H082       -37.8680    -3.5270    13.3600 h1         1 XDV       0.031200
     23 H081       -38.9180    -4.8780    12.9510 h1         1 XDV       0.031200
     24 H1         -37.8770    -9.2410     8.3030 hn         1 XDV       0.340300
     25 H2         -37.7820    -7.6430     8.1190 hn         1 XDV       0.340300
@<TRIPOS>BOND
     1     1     7 1   
     2     1    12 1   
     3     1    13 1   
     4     2     3 1   
     5     2     8 1   
     6     2    14 1   
     7     2    15 1   
     8     3     9 1   
     9     3    16 1   
    10     3    17 1   
    11     4     5 1   
    12     4     9 1   
    13     4    18 1   
    14     4    19 1   
    15     5    10 1   
    16     5    20 1   
    17     5    21 1   
    18     6     7 1   
    19     6    10 1   
    20     6    22 1   
    21     6    23 1   
    22     7    11 2   
    23     8    24 1   
    24     8    25 1   
@<TRIPOS>SUBSTRUCTURE
     1 XDV         1 TEMP              0 ****  ****    0 ROOT
