@<TRIPOS>MOLECULE
XDY
   42    43     1     0     0
SMALL
No Charge or Current Charge


@<TRIPOS>ATOM
      1 C02        -38.3290     6.6670   -16.9320 c          1 XDY       0.717000
      2 C03        -39.6360     7.5090   -16.9960 c3         1 XDY      -0.060000
      3 C05        -39.8340    10.1640   -16.9060 c5         1 XDY       0.090700
      4 C06        -40.7870    10.0880   -18.1450 c5         1 XDY       0.130500
      5 C08        -40.5330    11.5100   -18.7100 c5         1 XDY      -0.074400
      6 C09        -38.9770    11.6570   -18.6270 c5         1 XDY      -0.086400
      7 C10        -38.5120    10.5520   -17.6210 c5         1 XDY      -0.084400
      8 C11        -39.3030     8.7760   -14.8590 c          1 XDY       0.591100
      9 C12        -39.1560    10.1050   -14.0690 c3         1 XDY       0.010000
     10 C14        -37.3230     9.7650   -12.4110 c          1 XDY       0.617000
     11 C16        -37.7670     9.6250   -10.0110 c          1 XDY       0.596200
     12 C17        -39.2040     9.8180   -10.3090 cc         1 XDY      -0.291400
     13 C18        -39.6190     9.9730   -11.6150 cd         1 XDY       0.020600
     14 C19        -40.1350     9.8290    -9.1180 c3         1 XDY      -0.009900
     15 N04        -39.6220     8.8210   -16.2520 n          1 XDY      -0.357800
     16 N07        -42.2050     9.8370   -17.8190 n8         1 XDY      -0.997200
     17 N13        -38.6980     9.9530   -12.6590 n          1 XDY      -0.284000
     18 N15        -36.9670     9.6180   -11.1080 ns         1 XDY      -0.465500
     19 O01        -38.4310     5.4580   -16.7720 o          1 XDY      -0.719000
     20 O22        -39.1710     7.7010   -14.2820 o          1 XDY      -0.587100
     21 H032       -39.8390     7.6580   -18.0590 h1         1 XDY       0.035200
     22 H031       -40.4540     6.8980   -16.5950 h1         1 XDY       0.035200
     23 H051       -40.1730    10.9430   -16.2120 h1         1 XDY       0.026700
     24 H061       -40.4650     9.3480   -18.8900 h1         1 XDY       0.077700
     25 H081       -41.0300    12.2790   -18.1060 hc         1 XDY       0.036200
     26 H082       -40.9020    11.6200   -19.7360 hc         1 XDY       0.036200
     27 H092       -38.5050    11.5150   -19.6070 hc         1 XDY       0.034200
     28 H091       -38.6970    12.6600   -18.2840 hc         1 XDY       0.034200
     29 H101       -38.0770     9.7030   -18.1600 hc         1 XDY       0.077700
     30 H102       -37.7480    10.9140   -16.9250 hc         1 XDY       0.077700
     31 H121       -38.4490    10.7470   -14.6070 h1         1 XDY       0.068700
     32 H122       -40.1310    10.6070   -14.0780 h1         1 XDY       0.068700
     33 H181       -40.6520    10.1140   -11.9220 h4         1 XDY       0.195000
     34 H191       -40.0830     8.8800    -8.5700 hc         1 XDY       0.037367
     35 H192       -39.8770    10.6380    -8.4240 hc         1 XDY       0.037367
     36 H193       -41.1760     9.9770    -9.4280 hc         1 XDY       0.037367
     37 H071       -42.2720     8.9410   -17.3230 hn         1 XDY       0.391000
     38 H2         -42.5150    10.5210   -17.1200 hn         1 XDY       0.391000
     39 H151       -35.9840     9.4860   -10.9330 hn         1 XDY       0.338500
     40 O1         -37.2580     7.2340   -17.1000 o          1 XDY      -0.719000
     41 O20        -37.3000     9.4800    -8.8930 o          1 XDY      -0.559000
     42 O21        -36.4810     9.7380   -13.2940 o          1 XDY      -0.516000
@<TRIPOS>BOND
     1     1     2 1   
     2     1    19 1   
     3     1    40 1   
     4     2    15 1   
     5     2    21 1   
     6     2    22 1   
     7     3     4 1   
     8     3     7 1   
     9     3    15 1   
    10     3    23 1   
    11     4     5 1   
    12     4    16 1   
    13     4    24 1   
    14     5     6 1   
    15     5    25 1   
    16     5    26 1   
    17     6     7 1   
    18     6    27 1   
    19     6    28 1   
    20     7    29 1   
    21     7    30 1   
    22     8     9 1   
    23     8    15 1   
    24     8    20 2   
    25     9    17 1   
    26     9    31 1   
    27     9    32 1   
    28    10    17 1   
    29    10    18 1   
    30    10    42 2   
    31    11    12 1   
    32    11    18 1   
    33    11    41 2   
    34    12    13 2   
    35    12    14 1   
    36    13    17 1   
    37    13    33 1   
    38    14    34 1   
    39    14    35 1   
    40    14    36 1   
    41    16    37 1   
    42    16    38 1   
    43    18    39 1   
@<TRIPOS>SUBSTRUCTURE
     1 XDY         1 TEMP              0 ****  ****    0 ROOT
