@<TRIPOS>MOLECULE
XDY
   42    43     1     0     0
SMALL
abcg2


@<TRIPOS>ATOM
      1 C02        -37.9720     6.9350   -16.9330 c          1 XDY       0.717000
      2 C03        -39.3690     7.5850   -16.7890 c3         1 XDY      -0.060000
      3 C05        -39.5130    10.0700   -16.9620 c5         1 XDY       0.090700
      4 C06        -40.8910    10.2240   -17.6250 c5         1 XDY       0.130500
      5 C08        -40.6580    11.3990   -18.5760 c5         1 XDY      -0.074400
      6 C09        -39.1670    11.3310   -18.9780 c5         1 XDY      -0.086400
      7 C10        -38.5410    10.2090   -18.1310 c5         1 XDY      -0.084400
      8 C11        -39.1510     8.9040   -14.8200 c          1 XDY       0.591100
      9 C12        -39.0590    10.2680   -14.1290 c3         1 XDY       0.010000
     10 C14        -37.3730     9.8280   -12.4650 c          1 XDY       0.617000
     11 C16        -38.0260     9.4580   -10.1080 c          1 XDY       0.596200
     12 C17        -39.4030     9.7000   -10.4910 cc         1 XDY      -0.291400
     13 C18        -39.6550     9.9890   -11.7800 cd         1 XDY       0.020600
     14 C19        -40.4690     9.6120    -9.4500 c3         1 XDY      -0.009900
     15 N04        -39.3710     8.8830   -16.1430 n          1 XDY      -0.357800
     16 N07        -42.0250    10.4160   -16.7480 n8         1 XDY      -0.997200
     17 N13        -38.6910    10.0940   -12.7430 n          1 XDY      -0.284000
     18 N15        -37.1170     9.5570   -11.1470 ns         1 XDY      -0.465500
     19 O01        -37.9990     5.7550   -17.3320 o          1 XDY      -0.719000
     20 O22        -39.0480     7.8890   -14.1460 o          1 XDY      -0.587100
     21 H032       -39.7950     7.6980   -17.7880 h1         1 XDY       0.035200
     22 H031       -40.0350     6.9030   -16.2590 h1         1 XDY       0.035200
     23 H051       -39.3870    10.9490   -16.3260 h1         1 XDY       0.026700
     24 H061       -41.0890     9.3260   -18.2220 h1         1 XDY       0.077700
     25 H081       -40.8690    12.3340   -18.0490 hc         1 XDY       0.036200
     26 H082       -41.3290    11.3650   -19.4350 hc         1 XDY       0.036200
     27 H092       -39.0410    11.1360   -20.0430 hc         1 XDY       0.034200
     28 H091       -38.6770    12.2840   -18.7760 hc         1 XDY       0.034200
     29 H101       -38.5000     9.2800   -18.7020 hc         1 XDY       0.077700
     30 H102       -37.5260    10.4320   -17.8050 hc         1 XDY       0.077700
     31 H121       -38.3310    10.9200   -14.6090 h1         1 XDY       0.068700
     32 H122       -40.0200    10.7830   -14.1650 h1         1 XDY       0.068700
     33 H181       -40.6650    10.1750   -12.1230 h4         1 XDY       0.195000
     34 H191       -40.5020     8.6210    -8.9950 hc         1 XDY       0.037367
     35 H192       -40.3010    10.3310    -8.6460 hc         1 XDY       0.037367
     36 H193       -41.4490     9.8150    -9.8800 hc         1 XDY       0.037367
     37 H071       -42.1260     9.6150   -16.1350 hn         1 XDY       0.391000
     38 H2         -41.8620    11.2140   -16.1440 hn         1 XDY       0.391000
     39 H151       -36.1450     9.3800   -10.9210 hn         1 XDY       0.338500
     40 O1         -36.9760     7.6300   -16.6740 o          1 XDY      -0.719000
     41 O20        -37.6510     9.1840    -8.9820 o          1 XDY      -0.559000
     42 O21        -36.5030     9.8450   -13.3110 o          1 XDY      -0.516000
@<TRIPOS>BOND
     1     1     2 1   
     2     1    19 1   
     3     1    40 1   
     4     2    15 1   
     5     2    21 1   
     6     2    22 1   
     7     3     4 1   
     8     3     7 1   
     9     3    15 1   
    10     3    23 1   
    11     4     5 1   
    12     4    16 1   
    13     4    24 1   
    14     5     6 1   
    15     5    25 1   
    16     5    26 1   
    17     6     7 1   
    18     6    27 1   
    19     6    28 1   
    20     7    29 1   
    21     7    30 1   
    22     8     9 1   
    23     8    15 1   
    24     8    20 2   
    25     9    17 1   
    26     9    31 1   
    27     9    32 1   
    28    10    17 1   
    29    10    18 1   
    30    10    42 2   
    31    11    12 1   
    32    11    18 1   
    33    11    41 2   
    34    12    13 2   
    35    12    14 1   
    36    13    17 1   
    37    13    33 1   
    38    14    34 1   
    39    14    35 1   
    40    14    36 1   
    41    16    37 1   
    42    16    38 1   
    43    18    39 1   
@<TRIPOS>SUBSTRUCTURE
     1 XDY         1 TEMP              0 ****  ****    0 ROOT
