@<TRIPOS>MOLECULE
XDZ
   47    49     1     0     0
SMALL
No Charge or Current Charge


@<TRIPOS>ATOM
      1 N1         -10.9160    17.1470   -22.8130 na         1 XDZ      -0.051700
      2 C4          -9.6070    17.6440   -22.6720 cc         1 XDZ      -0.047100
      3 C5         -11.3650    15.7610   -22.5890 c3         1 XDZ      -0.023400
      4 C6         -11.6890    15.0230   -23.8930 c          1 XDZ       0.579100
      5 C7         -13.5160    13.8020   -25.1290 c3         1 XDZ       0.114700
      6 C8         -14.1190    14.8530   -26.0970 c3         1 XDZ      -0.085400
      7 C10        -15.7710    13.5960   -27.7040 c3         1 XDZ      -0.071900
      8 C13        -14.4930    12.6970   -24.6670 c3         1 XDZ      -0.085400
      9 C15        -13.1610    18.0910   -23.4970 ca         1 XDZ      -0.113000
     10 C17        -13.0710    20.4700   -24.0780 ca         1 XDZ      -0.032900
     11 O1          -8.6960    21.1140   -23.3550 o          1 XDZ      -0.473100
     12 C1          -8.5420    19.9400   -23.0310 c          1 XDZ       0.571300
     13 C2          -7.1380    19.4090   -22.6180 c3         1 XDZ       0.196000
     14 F1          -6.1920    20.3790   -22.6690 f          1 XDZ      -0.107667
     15 F2          -7.1410    18.9280   -21.3510 f          1 XDZ      -0.107667
     16 F3          -6.7230    18.4100   -23.4330 f          1 XDZ      -0.107667
     17 C3          -9.7020    18.9900   -23.0260 cd         1 XDZ      -0.258400
     18 N2         -12.9530    14.4710   -23.9550 ns         1 XDZ      -0.505900
     19 C9         -14.4080    14.3020   -27.5120 c3         1 XDZ      -0.066900
     20 C11        -16.2760    12.7070   -26.5430 c3         1 XDZ      -0.071900
     21 C12        -15.1980    11.8970   -25.7900 c3         1 XDZ      -0.066900
     22 O2         -10.8930    14.9320   -24.8180 o          1 XDZ      -0.568100
     23 C14        -11.7810    18.1500   -23.2340 ca         1 XDZ      -0.051200
     24 C16        -13.8050    19.2710   -23.9250 ca         1 XDZ      -0.073000
     25 Br1        -13.9630    22.0590   -24.6600 br         1 XDZ      -0.096100
     26 C18        -11.6880    20.5050   -23.8060 ca         1 XDZ      -0.029000
     27 C19        -11.0740    19.3140   -23.3830 ca         1 XDZ      -0.040800
     28 H1          -8.7740    17.0250   -22.3550 h4         1 XDZ       0.229000
     29 H2         -12.2520    15.7720   -21.9470 h1         1 XDZ       0.078700
     30 H3         -10.5800    15.1980   -22.0710 h1         1 XDZ       0.078700
     31 H4         -12.6890    13.3030   -25.6540 h1         1 XDZ       0.078700
     32 H5         -13.3960    15.6720   -26.2060 hc         1 XDZ       0.043200
     33 H6         -15.0240    15.2970   -25.6650 hc         1 XDZ       0.043200
     34 H7         -16.5360    14.3570   -27.9050 hc         1 XDZ       0.037950
     35 H8         -15.2560    13.1370   -24.0130 hc         1 XDZ       0.043200
     36 H9         -13.9330    11.9870   -24.0460 hc         1 XDZ       0.043200
     37 H10        -13.7260    17.1710   -23.3770 ha         1 XDZ       0.117000
     38 H11        -13.5430    14.5790   -23.1390 hn         1 XDZ       0.308500
     39 H12        -13.6020    13.6150   -27.8000 hc         1 XDZ       0.043700
     40 H13        -16.8230    13.3310   -25.8240 hc         1 XDZ       0.037950
     41 H14        -17.0170    12.0090   -26.9530 hc         1 XDZ       0.037950
     42 H15        -15.6880    11.0320   -25.3250 hc         1 XDZ       0.043700
     43 H16        -14.4610    11.4910   -26.4940 hc         1 XDZ       0.043700
     44 H17        -14.8720    19.2570   -24.1370 ha         1 XDZ       0.130000
     45 H18        -11.1270    21.4280   -23.9250 ha         1 XDZ       0.153000
     46 H19        -15.7090    12.9860   -28.6130 hc         1 XDZ       0.037950
     47 H20        -14.3580    15.1330   -28.2270 hc         1 XDZ       0.043700
@<TRIPOS>BOND
     1     1     2 1   
     2     1     3 1   
     3     1    23 1   
     4     2    17 2   
     5     2    28 1   
     6     3     4 1   
     7     3    29 1   
     8     3    30 1   
     9     4    18 1   
    10     4    22 2   
    11     5     6 1   
    12     5     8 1   
    13     5    18 1   
    14     5    31 1   
    15     6    19 1   
    16     6    32 1   
    17     6    33 1   
    18     7    19 1   
    19     7    20 1   
    20     7    34 1   
    21     7    46 1   
    22     8    21 1   
    23     8    35 1   
    24     8    36 1   
    25     9    23 ar  
    26     9    24 ar  
    27     9    37 1   
    28    10    24 ar  
    29    10    25 1   
    30    10    26 ar  
    31    11    12 2   
    32    12    13 1   
    33    12    17 1   
    34    13    14 1   
    35    13    15 1   
    36    13    16 1   
    37    17    27 1   
    38    18    38 1   
    39    19    39 1   
    40    19    47 1   
    41    20    21 1   
    42    20    40 1   
    43    20    41 1   
    44    21    42 1   
    45    21    43 1   
    46    23    27 ar  
    47    24    44 1   
    48    26    27 ar  
    49    26    45 1   
@<TRIPOS>SUBSTRUCTURE
     1 XDZ         1 TEMP              0 ****  ****    0 ROOT
