@<TRIPOS>MOLECULE
XE0
   30    31     1     0     0
SMALL
abcg2


@<TRIPOS>ATOM
      1 C1          98.4190     9.8670    20.2690 ca         1 XE0       0.361300
      2 C2          96.7170    10.9360    21.3280 ca         1 XE0       0.164300
      3 C3          96.2470    11.8310    22.4310 c3         1 XE0      -0.135700
      4 C5          95.4240    11.8940    24.8110 ca         1 XE0      -0.073300
      5 C6          96.2860    12.4070    25.7830 ca         1 XE0      -0.090000
      6 C7          95.8460    13.2520    26.7910 ca         1 XE0      -0.097000
      7 C8          94.5030    13.5960    26.8340 ca         1 XE0       0.130000
      8 C9          93.6060    13.1130    25.8940 ca         1 XE0      -0.094000
      9 C10         94.0830    12.2720    24.8970 ca         1 XE0       0.132000
     10 C11         95.8060    10.3420    20.4440 ca         1 XE0      -0.209000
     11 F3          95.6380     7.4820    18.4890 f          1 XE0      -0.099667
     12 C13         95.4770     8.8200    18.4510 c3         1 XE0       0.254700
     13 F1          94.1700     9.0730    18.6300 f          1 XE0      -0.099667
     14 F2          95.7980     9.2220    17.2050 f          1 XE0      -0.099667
     15 C12         96.3410     9.5110    19.4860 ca         1 XE0       0.059300
     16 N2          97.6440     9.2580    19.3790 nb         1 XE0      -0.229000
     17 O           99.7370     9.6490    20.2100 oh         1 XE0      -0.611300
     18 N1          98.0240    10.6930    21.2360 nb         1 XE0      -0.176000
     19 C4          95.9540    11.0160    23.7130 c3         1 XE0      -0.026100
     20 CL2         92.9260    11.6810    23.7210 cl         1 XE0      -0.207000
     21 CL1         93.9210    14.6600    28.0950 cl         1 XE0      -0.197000
     22 H1          97.0150    12.5730    22.6460 hc         1 XE0       0.074200
     23 H2          95.3400    12.3480    22.1180 hc         1 XE0       0.074200
     24 H3          97.3330    12.1320    25.7430 ha         1 XE0       0.127000
     25 H4          96.5340    13.6340    27.5320 ha         1 XE0       0.137000
     26 H5          92.5600    13.3820    25.9330 ha         1 XE0       0.147000
     27 H6          94.7480    10.5360    20.5150 ha         1 XE0       0.158000
     28 H8          95.2380    10.2280    23.4800 hc         1 XE0       0.064700
     29 H9          96.8750    10.5370    24.0460 hc         1 XE0       0.064700
     30 H7          99.9210     9.0410    19.4760 ho         1 XE0       0.498000
@<TRIPOS>BOND
     1     1    16 ar  
     2     1    17 1   
     3     1    18 ar  
     4     2     3 1   
     5     2    10 ar  
     6     2    18 ar  
     7     3    19 1   
     8     3    22 1   
     9     3    23 1   
    10     4     5 ar  
    11     4     9 ar  
    12     4    19 1   
    13     5     6 ar  
    14     5    24 1   
    15     6     7 ar  
    16     6    25 1   
    17     7     8 ar  
    18     7    21 1   
    19     8     9 ar  
    20     8    26 1   
    21     9    20 1   
    22    10    15 ar  
    23    10    27 1   
    24    11    12 1   
    25    12    13 1   
    26    12    14 1   
    27    12    15 1   
    28    15    16 ar  
    29    17    30 1   
    30    19    28 1   
    31    19    29 1   
@<TRIPOS>SUBSTRUCTURE
     1 XE0         1 TEMP              0 ****  ****    0 ROOT
