@<TRIPOS>MOLECULE
XE0
   30    31     1     0     0
SMALL
No Charge or Current Charge


@<TRIPOS>ATOM
      1 C1          98.5200     9.8610    20.2280 ca         1 XE0       0.361300
      2 C2          96.8020    10.8960    21.3380 ca         1 XE0       0.164300
      3 C3          96.3380    11.8150    22.4570 c3         1 XE0      -0.135700
      4 C5          95.3530    11.9540    24.8030 ca         1 XE0      -0.073300
      5 C6          96.2300    12.3370    25.8390 ca         1 XE0      -0.090000
      6 C7          95.7900    13.1900    26.8670 ca         1 XE0      -0.097000
      7 C8          94.4700    13.6660    26.8660 ca         1 XE0       0.130000
      8 C9          93.5890    13.2950    25.8400 ca         1 XE0      -0.094000
      9 C10         94.0240    12.4430    24.8110 ca         1 XE0       0.132000
     10 C11         95.8840    10.2800    20.4700 ca         1 XE0      -0.209000
     11 F3          96.1090     7.9900    17.5490 f          1 XE0      -0.099667
     12 C13         95.4510     8.7230    18.4800 c3         1 XE0       0.254700
     13 F1          94.6130     7.8770    19.1210 f          1 XE0      -0.099667
     14 F2          94.6790     9.6050    17.8060 f          1 XE0      -0.099667
     15 C12         96.3890     9.4340    19.4640 ca         1 XE0       0.059300
     16 N2          97.7220     9.2270    19.3480 nb         1 XE0      -0.229000
     17 O           99.8540     9.6430    20.0980 oh         1 XE0      -0.611300
     18 N1          98.1280    10.6850    21.2180 nb         1 XE0      -0.176000
     19 C4          95.8640    11.0310    23.6990 c3         1 XE0      -0.026100
     20 Cl2         92.8760    12.0120    23.5410 cl         1 XE0      -0.207000
     21 Cl1         93.9210    14.7340    28.1520 cl         1 XE0      -0.197000
     22 H1          97.1450    12.4990    22.7510 hc         1 XE0       0.074200
     23 H2          95.5200    12.4490    22.0940 hc         1 XE0       0.074200
     24 H3          97.2570    11.9760    25.8480 ha         1 XE0       0.127000
     25 H4          96.4710    13.4820    27.6620 ha         1 XE0       0.137000
     26 H5          92.5690    13.6670    25.8410 ha         1 XE0       0.147000
     27 H6          94.8150    10.4520    20.5760 ha         1 XE0       0.158000
     28 H8          95.0890    10.3120    23.4070 hc         1 XE0       0.064700
     29 H9          96.6980    10.4230    24.0730 hc         1 XE0       0.064700
     30 H7          99.9620     9.0290    19.3410 ho         1 XE0       0.498000
@<TRIPOS>BOND
     1     1    16 ar  
     2     1    17 1   
     3     1    18 ar  
     4     2     3 1   
     5     2    10 ar  
     6     2    18 ar  
     7     3    19 1   
     8     3    22 1   
     9     3    23 1   
    10     4     5 ar  
    11     4     9 ar  
    12     4    19 1   
    13     5     6 ar  
    14     5    24 1   
    15     6     7 ar  
    16     6    25 1   
    17     7     8 ar  
    18     7    21 1   
    19     8     9 ar  
    20     8    26 1   
    21     9    20 1   
    22    10    15 ar  
    23    10    27 1   
    24    11    12 1   
    25    12    13 1   
    26    12    14 1   
    27    12    15 1   
    28    15    16 ar  
    29    17    30 1   
    30    19    28 1   
    31    19    29 1   
@<TRIPOS>SUBSTRUCTURE
     1 XE0         1 TEMP              0 ****  ****    0 ROOT
