@<TRIPOS>MOLECULE
XE2
   28    30     1     0     0
SMALL
No Charge or Current Charge


@<TRIPOS>ATOM
      1 C1          32.9060    19.7820    11.6490 c          1 XE2       0.589500
      2 C10         25.4120    20.9440     9.7870 cc         1 XE2      -0.167000
      3 C11         24.5170    22.0130     9.5860 cc         1 XE2      -0.184000
      4 C12         25.2330    23.1620     9.7830 cd         1 XE2       0.133900
      5 C13         29.0530    21.6660    10.6910 ca         1 XE2      -0.069000
      6 C14         30.2870    21.0620    10.9860 ca         1 XE2      -0.113000
      7 C15         30.4240    19.6550    11.0090 ca         1 XE2       0.050000
      8 C2          31.6610    19.0100    11.3060 ca         1 XE2      -0.283600
      9 C3          31.7300    17.6000    11.2570 ca         1 XE2       0.207100
     10 C4          30.5980    16.8430    10.9340 ca         1 XE2      -0.156000
     11 C5          29.3770    17.4710    10.6630 ca         1 XE2      -0.025000
     12 C6          29.2850    18.8720    10.6970 ca         1 XE2      -0.087000
     13 C7          28.0500    19.4820    10.4040 ca         1 XE2      -0.069000
     14 C8          27.9180    20.8830    10.4020 ca         1 XE2      -0.126500
     15 C9          26.6190    21.5140    10.0940 cd         1 XE2       0.188500
     16 O2          32.8830    16.9240    11.5370 oh         1 XE2      -0.532100
     17 O3          26.5450    22.8900    10.1010 os         1 XE2      -0.252000
     18 O1          32.9410    20.7070    12.4510 o          1 XE2      -0.526100
     19 H1          33.8450    19.4130    11.1800 h4         1 XE2      -0.038800
     20 H11         23.4660    21.9300     9.3270 ha         1 XE2       0.142000
     21 H12         24.9340    24.2020     9.7290 h4         1 XE2       0.053100
     22 H13         28.9890    22.7520    10.6870 ha         1 XE2       0.129000
     23 H14         31.1280    21.7180    11.1830 ha         1 XE2       0.149000
     24 H4          30.6650    15.7590    10.9030 ha         1 XE2       0.136000
     25 H5          28.5050    16.8660    10.4190 ha         1 XE2       0.121000
     26 H7          27.1910    18.8560    10.1730 ha         1 XE2       0.115000
     27 HO2         33.4750    17.4890    12.0730 ho         1 XE2       0.474000
     28 H10         25.1730    19.8890     9.7090 ha         1 XE2       0.139000
@<TRIPOS>BOND
     1     1     8 1   
     2     1    18 2   
     3     1    19 1   
     4     2     3 1   
     5     2    15 2   
     6     2    28 1   
     7     3     4 2   
     8     3    20 1   
     9     4    17 1   
    10     4    21 1   
    11     5     6 ar  
    12     5    14 ar  
    13     5    22 1   
    14     6     7 ar  
    15     6    23 1   
    16     7     8 ar  
    17     7    12 ar  
    18     8     9 ar  
    19     9    10 ar  
    20     9    16 1   
    21    10    11 ar  
    22    10    24 1   
    23    11    12 ar  
    24    11    25 1   
    25    12    13 ar  
    26    13    14 ar  
    27    13    26 1   
    28    14    15 1   
    29    15    17 1   
    30    16    27 1   
@<TRIPOS>SUBSTRUCTURE
     1 XE2         1 TEMP              0 ****  ****    0 ROOT
