@<TRIPOS>MOLECULE
XE2
   28    30     1     0     0
SMALL
abcg2


@<TRIPOS>ATOM
      1 C1          32.8940    19.7760    11.6360 c          1 XE2       0.589500
      2 C10         25.3940    20.9480     9.7070 cc         1 XE2      -0.167000
      3 C11         24.5130    22.0600     9.5440 cc         1 XE2      -0.184000
      4 C12         25.2380    23.1680     9.8430 cd         1 XE2       0.133900
      5 C13         29.0080    21.6410    10.7410 ca         1 XE2      -0.069000
      6 C14         30.2280    21.0800    11.0360 ca         1 XE2      -0.113000
      7 C15         30.4180    19.6790    11.0250 ca         1 XE2       0.050000
      8 C2          31.6780    19.0380    11.3230 ca         1 XE2      -0.283600
      9 C3          31.7380    17.6370    11.2940 ca         1 XE2       0.207100
     10 C4          30.6030    16.8610    10.9660 ca         1 XE2      -0.156000
     11 C5          29.4190    17.4640    10.6760 ca         1 XE2      -0.025000
     12 C6          29.2850    18.8780    10.6970 ca         1 XE2      -0.087000
     13 C7          28.0470    19.4730    10.3990 ca         1 XE2      -0.069000
     14 C8          27.8850    20.8470    10.4120 ca         1 XE2      -0.126500
     15 C9          26.6040    21.4520    10.0960 cd         1 XE2       0.188500
     16 O2          32.8320    16.8920    11.5650 oh         1 XE2      -0.532100
     17 O3          26.5110    22.8180    10.1810 os         1 XE2      -0.252000
     18 O1          33.0300    20.9870    11.7270 o          1 XE2      -0.526100
     19 H1          33.7950    19.1580    11.8020 h4         1 XE2      -0.038800
     20 H11         23.4790    22.0340     9.2440 ha         1 XE2       0.142000
     21 H12         25.0150    24.2210     9.8660 h4         1 XE2       0.053100
     22 H13         28.9050    22.7170    10.7600 ha         1 XE2       0.129000
     23 H14         31.0570    21.7210    11.2820 ha         1 XE2       0.149000
     24 H4          30.7080    15.7840    10.9550 ha         1 XE2       0.136000
     25 H5          28.5520    16.8640    10.4240 ha         1 XE2       0.121000
     26 H7          27.2150    18.8250    10.1560 ha         1 XE2       0.115000
     27 HO2         33.5990    17.4240    11.8120 ho         1 XE2       0.474000
     28 H10         25.1580    19.9080     9.5510 ha         1 XE2       0.139000
@<TRIPOS>BOND
     1     1     8 1   
     2     1    18 2   
     3     1    19 1   
     4     2     3 1   
     5     2    15 2   
     6     2    28 1   
     7     3     4 2   
     8     3    20 1   
     9     4    17 1   
    10     4    21 1   
    11     5     6 ar  
    12     5    14 ar  
    13     5    22 1   
    14     6     7 ar  
    15     6    23 1   
    16     7     8 ar  
    17     7    12 ar  
    18     8     9 ar  
    19     9    10 ar  
    20     9    16 1   
    21    10    11 ar  
    22    10    24 1   
    23    11    12 ar  
    24    11    25 1   
    25    12    13 ar  
    26    13    14 ar  
    27    13    26 1   
    28    14    15 1   
    29    15    17 1   
    30    16    27 1   
@<TRIPOS>SUBSTRUCTURE
     1 XE2         1 TEMP              0 ****  ****    0 ROOT
