@<TRIPOS>MOLECULE
XE3
   49    51     1     0     0
SMALL
No Charge or Current Charge


@<TRIPOS>ATOM
      1 C1          15.3960    35.9880   128.9080 cc         1 XE3       0.208500
      2 C2          15.8250    35.9130   127.6070 cd         1 XE3       0.107900
      3 C3          17.1860    34.8990   128.8400 cd         1 XE3       0.702900
      4 C4          19.2950    33.5020   128.6480 ca         1 XE3       0.288000
      5 C5          19.7650    33.9250   127.3870 ca         1 XE3      -0.072000
      6 C6          20.8890    33.3220   126.7790 ca         1 XE3      -0.184300
      7 N1          16.2940    35.3050   129.7040 nc         1 XE3      -0.692000
      8 N2          18.1800    34.1010   129.2550 nu         1 XE3      -0.955900
      9 N3          11.8870    38.8860   126.9790 n3         1 XE3      -0.808500
     10 O1          16.9780    35.1980   127.5310 os         1 XE3      -0.270000
     11 C7          21.5590    32.2900   127.4650 ca         1 XE3      -0.065000
     12 C8          21.1090    31.8680   128.7250 ca         1 XE3      -0.101000
     13 C9          19.9820    32.4640   129.3260 ca         1 XE3      -0.066300
     14 C10         21.3800    33.8120   125.4120 c3         1 XE3       0.359300
     15 C11         19.5280    31.9680   130.6990 c3         1 XE3      -0.056800
     16 C12         11.2090    38.1090   125.9040 c3         1 XE3       0.190800
     17 C13         11.2030    38.6780   124.4560 c3         1 XE3       0.155600
     18 C14         12.1110    40.9480   124.4970 c3         1 XE3       0.160600
     19 C15         12.6620    41.0150   125.9350 c3         1 XE3      -0.120400
     20 O2          12.0840    39.1430   129.5310 o          1 XE3      -0.525500
     21 N           13.4280    37.2910   128.3500 ns         1 XE3      -0.607300
     22 C           14.1470    36.7010   129.3530 c          1 XE3       0.569600
     23 O           13.7810    36.7590   130.5200 o          1 XE3      -0.504100
     24 C16         13.0650    39.6750   126.5740 c3         1 XE3       0.229800
     25 F           20.3550    34.1340   124.5900 f          1 XE3      -0.112333
     26 F1          22.1500    34.9160   125.5340 f          1 XE3      -0.112333
     27 F2          22.1190    32.8840   124.7610 f          1 XE3      -0.112333
     28 O3          10.9150    37.1100   128.5560 o          1 XE3      -0.525500
     29 O4          10.9460    40.1000   124.4290 os         1 XE3      -0.435000
     30 S           11.9890    38.1030   128.5040 s6         1 XE3       1.330900
     31 H1          15.4150    36.3060   126.6860 h4         1 XE3       0.067100
     32 H3          19.2710    34.7420   126.8730 ha         1 XE3       0.140000
     33 H2          18.0320    33.8630   130.2300 hn         1 XE3       0.534000
     34 H4          22.4370    31.8140   127.0320 ha         1 XE3       0.135000
     35 H5          21.6430    31.0710   129.2370 ha         1 XE3       0.125000
     36 H7          18.4890    31.6180   130.6700 hc         1 XE3       0.052367
     37 H8          20.1400    31.1290   131.0520 hc         1 XE3       0.052367
     38 H6          19.6010    32.7620   131.4510 hc         1 XE3       0.052367
     39 H10         11.6540    37.1060   125.8400 h1         1 XE3       0.059200
     40 H9          10.1590    37.9580   126.1890 h1         1 XE3       0.059200
     41 H11         12.1610    38.4470   123.9730 h1         1 XE3       0.046700
     42 H12         10.4260    38.1480   123.8900 h1         1 XE3       0.046700
     43 H14         12.8950    40.5920   123.8140 h1         1 XE3       0.046200
     44 H13         11.8460    41.9660   124.1840 h1         1 XE3       0.046200
     45 H16         13.5430    41.6660   125.9240 hc         1 XE3       0.064700
     46 H15         11.9240    41.5090   126.5790 hc         1 XE3       0.064700
     47 H           13.6930    37.1830   127.3880 hn         1 XE3       0.324500
     48 H17         13.6720    39.9270   127.4560 h1         1 XE3       0.053700
     49 H18         13.7160    39.1090   125.8940 h1         1 XE3       0.053700
@<TRIPOS>BOND
     1     1     2 2   
     2     1     7 1   
     3     1    22 1   
     4     2    10 1   
     5     2    31 1   
     6     3     7 2   
     7     3     8 1   
     8     3    10 1   
     9     4     5 ar  
    10     4     8 1   
    11     4    13 ar  
    12     5     6 ar  
    13     5    32 1   
    14     6    11 ar  
    15     6    14 1   
    16     8    33 1   
    17     9    16 1   
    18     9    24 1   
    19     9    30 1   
    20    11    12 ar  
    21    11    34 1   
    22    12    13 ar  
    23    12    35 1   
    24    13    15 1   
    25    14    25 1   
    26    14    26 1   
    27    14    27 1   
    28    15    36 1   
    29    15    37 1   
    30    15    38 1   
    31    16    17 1   
    32    16    39 1   
    33    16    40 1   
    34    17    29 1   
    35    17    41 1   
    36    17    42 1   
    37    18    19 1   
    38    18    29 1   
    39    18    43 1   
    40    18    44 1   
    41    19    24 1   
    42    19    45 1   
    43    19    46 1   
    44    20    30 2   
    45    21    22 1   
    46    21    30 1   
    47    21    47 1   
    48    22    23 2   
    49    24    48 1   
    50    24    49 1   
    51    28    30 2   
@<TRIPOS>SUBSTRUCTURE
     1 XE3         1 TEMP              0 ****  ****    0 ROOT
