@<TRIPOS>MOLECULE
XE3
   49    51     1     0     0
SMALL
abcg2


@<TRIPOS>ATOM
      1 C1          15.7380    36.0960   128.8390 cc         1 XE3       0.208500
      2 C2          16.1080    35.6240   127.6310 cd         1 XE3       0.107900
      3 C3          17.4330    34.8930   129.1470 cd         1 XE3       0.702900
      4 C4          19.4050    33.4640   128.8840 ca         1 XE3       0.288000
      5 C5          20.0390    34.0610   127.8020 ca         1 XE3      -0.072000
      6 C6          20.9500    33.3390   127.0440 ca         1 XE3      -0.184300
      7 N1          16.5980    35.6220   129.8090 nc         1 XE3      -0.692000
      8 N2          18.4670    34.1820   129.6420 nu         1 XE3      -0.955900
      9 N3          12.3170    38.9200   126.7470 n3         1 XE3      -0.808500
     10 O1          17.2000    34.8430   127.8280 os         1 XE3      -0.270000
     11 C7          21.2690    32.0360   127.3980 ca         1 XE3      -0.065000
     12 C8          20.6520    31.4600   128.4980 ca         1 XE3      -0.101000
     13 C9          19.7060    32.1450   129.2500 ca         1 XE3      -0.066300
     14 C10         21.6250    34.0080   125.8890 c3         1 XE3       0.359300
     15 C11         19.0170    31.4890   130.4070 c3         1 XE3      -0.056800
     16 C12         11.8320    37.8890   125.8210 c3         1 XE3       0.190800
     17 C13         11.4040    38.4650   124.4820 c3         1 XE3       0.155600
     18 C14         11.0100    40.7910   124.5820 c3         1 XE3       0.160600
     19 C15         11.7620    41.1560   125.8510 c3         1 XE3      -0.120400
     20 O2          12.8310    39.6700   129.0800 o          1 XE3      -0.525500
     21 N           14.0380    37.6230   128.1400 ns         1 XE3      -0.607300
     22 C           14.5790    36.9300   129.1910 c          1 XE3       0.569600
     23 O           14.1270    36.9820   130.3120 o          1 XE3      -0.504100
     24 C16         12.8660    40.1800   126.2340 c3         1 XE3       0.229800
     25 F           20.7870    34.7950   125.2010 f          1 XE3      -0.112333
     26 F1          22.6350    34.7940   126.2910 f          1 XE3      -0.112333
     27 F2          22.1370    33.1290   125.0220 f          1 XE3      -0.112333
     28 O3          11.5900    37.5360   128.7130 o          1 XE3      -0.525500
     29 O4          10.4540    39.4930   124.5900 os         1 XE3      -0.435000
     30 S           12.5880    38.4880   128.2830 s6         1 XE3       1.330900
     31 H1          15.7330    35.7110   126.6240 h4         1 XE3       0.067100
     32 H3          19.8230    35.0940   127.5610 ha         1 XE3       0.140000
     33 H2          18.4850    34.1000   130.6470 hn         1 XE3       0.534000
     34 H4          21.9830    31.4570   126.8290 ha         1 XE3       0.135000
     35 H5          20.8970    30.4400   128.7660 ha         1 XE3       0.125000
     36 H7          17.9320    31.5500   130.3100 hc         1 XE3       0.052367
     37 H8          19.2920    30.4390   130.4760 hc         1 XE3       0.052367
     38 H6          19.2810    31.9590   131.3570 hc         1 XE3       0.052367
     39 H10         12.6050    37.1390   125.6220 h1         1 XE3       0.059200
     40 H9          10.9850    37.3790   126.2770 h1         1 XE3       0.059200
     41 H11         12.2760    38.7910   123.9030 h1         1 XE3       0.046700
     42 H12         10.9540    37.6390   123.9240 h1         1 XE3       0.046700
     43 H14         11.6830    40.9040   123.7210 h1         1 XE3       0.046200
     44 H13         10.1810    41.4850   124.4360 h1         1 XE3       0.046200
     45 H16         12.2120    42.1400   125.6950 hc         1 XE3       0.064700
     46 H15         11.0740    41.2550   126.6940 hc         1 XE3       0.064700
     47 H           14.5540    37.7340   127.2750 hn         1 XE3       0.324500
     48 H17         13.4910    40.6320   127.0010 h1         1 XE3       0.053700
     49 H18         13.5310    39.9720   125.3920 h1         1 XE3       0.053700
@<TRIPOS>BOND
     1     1     2 2   
     2     1     7 1   
     3     1    22 1   
     4     2    10 1   
     5     2    31 1   
     6     3     7 2   
     7     3     8 1   
     8     3    10 1   
     9     4     5 ar  
    10     4     8 1   
    11     4    13 ar  
    12     5     6 ar  
    13     5    32 1   
    14     6    11 ar  
    15     6    14 1   
    16     8    33 1   
    17     9    16 1   
    18     9    24 1   
    19     9    30 1   
    20    11    12 ar  
    21    11    34 1   
    22    12    13 ar  
    23    12    35 1   
    24    13    15 1   
    25    14    25 1   
    26    14    26 1   
    27    14    27 1   
    28    15    36 1   
    29    15    37 1   
    30    15    38 1   
    31    16    17 1   
    32    16    39 1   
    33    16    40 1   
    34    17    29 1   
    35    17    41 1   
    36    17    42 1   
    37    18    19 1   
    38    18    29 1   
    39    18    43 1   
    40    18    44 1   
    41    19    24 1   
    42    19    45 1   
    43    19    46 1   
    44    20    30 2   
    45    21    22 1   
    46    21    30 1   
    47    21    47 1   
    48    22    23 2   
    49    24    48 1   
    50    24    49 1   
    51    28    30 2   
@<TRIPOS>SUBSTRUCTURE
     1 XE3         1 TEMP              0 ****  ****    0 ROOT
