@<TRIPOS>MOLECULE
XEA
   13    13     1     0     0
SMALL
bcc


@<TRIPOS>ATOM
      1 N01        -31.9510    35.6450   -31.7220 n1         1 XEA      -0.342800
      2 C02        -32.8800    36.1630   -32.1570 c1         1 XEA       0.198700
      3 C03        -34.0630    36.8160   -32.6990 c5         1 XEA       0.174600
      4 C04        -35.3780    36.3940   -31.9980 c5         1 XEA      -0.125400
      5 C05        -36.2790    36.1090   -33.2020 c5         1 XEA       0.076400
      6 O06        -35.6040    36.6880   -34.3170 os         1 XEA      -0.208100
      7 N07        -34.2380    36.4840   -34.1180 n7         1 XEA      -0.495700
      8 H031       -33.9160    37.8940   -32.6070 h1         1 XEA       0.110700
      9 H042       -35.2520    35.5130   -31.3700 hc         1 XEA       0.070200
     10 H041       -35.7510    37.2050   -31.3770 hc         1 XEA       0.070200
     11 H052       -36.4090    35.0320   -33.3490 h1         1 XEA       0.061700
     12 H051       -37.2600    36.5770   -33.1300 h1         1 XEA       0.061700
     13 H071       -34.0660    35.4850   -34.2480 hn         1 XEA       0.347800
@<TRIPOS>BOND
     1     1     2 3   
     2     2     3 1   
     3     3     4 1   
     4     3     7 1   
     5     3     8 1   
     6     4     5 1   
     7     4     9 1   
     8     4    10 1   
     9     5     6 1   
    10     5    11 1   
    11     5    12 1   
    12     6     7 1   
    13     7    13 1   
@<TRIPOS>SUBSTRUCTURE
     1 XEA         1 TEMP              0 ****  ****    0 ROOT
