@<TRIPOS>MOLECULE
XEA
   13    13     1     0     0
SMALL
No Charge or Current Charge


@<TRIPOS>ATOM
      1 N01        -31.8050    36.2380   -31.5030 n1         1 XEA      -0.432000
      2 C02        -32.8060    36.5010   -32.0420 c1         1 XEA       0.287900
      3 C03        -34.0910    36.7860   -32.7320 c5         1 XEA       0.174600
      4 C04        -35.3110    36.1150   -32.0740 c5         1 XEA      -0.125400
      5 C05        -36.3480    36.3010   -33.2080 c5         1 XEA       0.099600
      6 O06        -35.5880    36.3540   -34.4440 os         1 XEA      -0.231300
      7 N07        -34.1720    36.2340   -34.1060 n7         1 XEA      -0.550900
      8 H031       -34.2030    37.8790   -32.7480 h1         1 XEA       0.110700
      9 H042       -35.1400    35.0520   -31.8610 hc         1 XEA       0.070200
     10 H041       -35.6150    36.6000   -31.1400 hc         1 XEA       0.070200
     11 H052       -37.0770    35.4810   -33.2510 h1         1 XEA       0.061700
     12 H051       -36.8960    37.2470   -33.1010 h1         1 XEA       0.061700
     13 H071       -33.9950    35.2190   -34.0830 hn         1 XEA       0.403000
@<TRIPOS>BOND
     1     1     2 3   
     2     2     3 1   
     3     3     4 1   
     4     3     7 1   
     5     3     8 1   
     6     4     5 1   
     7     4     9 1   
     8     4    10 1   
     9     5     6 1   
    10     5    11 1   
    11     5    12 1   
    12     6     7 1   
    13     7    13 1   
@<TRIPOS>SUBSTRUCTURE
     1 XEA         1 TEMP              0 ****  ****    0 ROOT
