@<TRIPOS>MOLECULE
XEB
   41    43     1     0     0
SMALL
bcc


@<TRIPOS>ATOM
      1 N01         -5.0450    -0.6750    -1.2340 nb         1 XEB      -0.761000
      2 C02         -6.2480    -0.9770    -0.8000 ca         1 XEB       0.685200
      3 N02         -7.1150    -1.5580    -1.6630 nv         1 XEB      -0.960500
      4 C03         -6.6850    -0.6790     0.5300 ca         1 XEB      -0.290300
      5 C04         -5.8270    -0.0590     1.3770 ca         1 XEB      -0.047000
      6 C05         -4.5230     0.2850     0.9370 ca         1 XEB      -0.188300
      7 C06         -3.5770     0.9330     1.7550 ca         1 XEB      -0.095000
      8 C07         -2.3330     1.2410     1.2740 ca         1 XEB      -0.125000
      9 C08         -1.9840     0.9070    -0.0530 ca         1 XEB      -0.074300
     10 C09         -2.8930     0.2720    -0.8620 ca         1 XEB      -0.165300
     11 C10         -4.1860    -0.0520    -0.3940 ca         1 XEB       0.453600
     12 C11         -0.6180     1.2480    -0.5660 c3         1 XEB       0.185700
     13 O12          0.3200     0.4730     0.1680 os         1 XEB      -0.316900
     14 C21          1.6290     0.6100    -0.1160 ca         1 XEB       0.144100
     15 C22          2.1430     1.4590    -1.0900 ca         1 XEB      -0.209000
     16 C23          3.5160     1.5070    -1.3000 ca         1 XEB      -0.088000
     17 C24          4.3670     0.7150    -0.5540 ca         1 XEB       0.014400
     18 C25          3.8750    -0.1390     0.4340 ca         1 XEB      -0.040300
     19 C26          2.5050    -0.1760     0.6350 ca         1 XEB      -0.158000
     20 CL           6.0750     0.8200    -0.8490 cl         1 XEB      -0.105400
     21 C28          4.7700    -1.0430     1.2350 c3         1 XEB       0.202100
     22 N29          5.1950    -2.1710     0.4290 n7         1 XEB      -0.793200
     23 C30          6.1230    -3.0300     1.1340 c3         1 XEB       0.143100
     24 HN02        -6.7430    -1.9420    -2.5160 hn         1 XEB       0.425800
     25 HN0A        -7.9340    -2.0150    -1.3020 hn         1 XEB       0.425800
     26 H03         -7.6860    -0.9510     0.8410 ha         1 XEB       0.139000
     27 H04         -6.1300     0.1770     2.3900 ha         1 XEB       0.136000
     28 H06         -3.8490     1.1910     2.7720 ha         1 XEB       0.131000
     29 H07         -1.6160     1.7490     1.9070 ha         1 XEB       0.139000
     30 H09         -2.6340     0.0040    -1.8800 ha         1 XEB       0.147000
     31 H11         -0.5450     1.0300    -1.6360 h1         1 XEB       0.044200
     32 H11A        -0.4150     2.3160    -0.4280 h1         1 XEB       0.044200
     33 H22          1.5040     2.0890    -1.6930 ha         1 XEB       0.139000
     34 H23          3.9120     2.1710    -2.0570 ha         1 XEB       0.145000
     35 H26          2.1000    -0.8330     1.3970 ha         1 XEB       0.146000
     36 H28          5.6620    -0.4970     1.5540 h1         1 XEB       0.042200
     37 H28A         4.2460    -1.3430     2.1540 h1         1 XEB       0.042200
     38 HN29         4.3780    -2.7080     0.1680 hn         1 XEB       0.353800
     39 H30          6.3540    -3.9030     0.5240 h1         1 XEB       0.029700
     40 H30A         7.0590    -2.4960     1.3110 h1         1 XEB       0.029700
     41 H30B         5.7590    -3.3870     2.1080 h1         1 XEB       0.029700
@<TRIPOS>BOND
     1     1     2 ar  
     2     1    11 ar  
     3     2     3 1   
     4     2     4 ar  
     5     3    24 1   
     6     3    25 1   
     7     4     5 ar  
     8     4    26 1   
     9     5     6 ar  
    10     5    27 1   
    11     6     7 ar  
    12     6    11 ar  
    13     7     8 ar  
    14     7    28 1   
    15     8     9 ar  
    16     8    29 1   
    17     9    10 ar  
    18     9    12 1   
    19    10    11 ar  
    20    10    30 1   
    21    12    13 1   
    22    12    31 1   
    23    12    32 1   
    24    13    14 1   
    25    14    15 ar  
    26    14    19 ar  
    27    15    16 ar  
    28    15    33 1   
    29    16    17 ar  
    30    16    34 1   
    31    17    18 ar  
    32    17    20 1   
    33    18    19 ar  
    34    18    21 1   
    35    19    35 1   
    36    21    22 1   
    37    21    36 1   
    38    21    37 1   
    39    22    23 1   
    40    22    38 1   
    41    23    39 1   
    42    23    40 1   
    43    23    41 1   
@<TRIPOS>SUBSTRUCTURE
     1 XEB         1 TEMP              0 ****  ****    0 ROOT
