@<TRIPOS>MOLECULE
XEB
   41    43     1     0     0
SMALL
No Charge or Current Charge


@<TRIPOS>ATOM
      1 N01         -4.7130    -1.0910    -1.0070 nb         1 XEB      -0.761000
      2 C02         -5.9350    -1.4080    -0.6030 ca         1 XEB       0.619900
      3 N02         -6.4590    -2.3580    -1.3780 nv         1 XEB      -1.070900
      4 C03         -6.5930    -0.8460     0.4930 ca         1 XEB      -0.207000
      5 C04         -5.9230     0.1390     1.2310 ca         1 XEB      -0.029000
      6 C05         -4.6260     0.5000     0.8220 ca         1 XEB      -0.123000
      7 C06         -3.9110     1.4840     1.5300 ca         1 XEB      -0.077000
      8 C07         -2.6160     1.8420     1.1220 ca         1 XEB      -0.107000
      9 C08         -2.0290     1.2210     0.0050 ca         1 XEB      -0.074300
     10 C09         -2.7490     0.2350    -0.6980 ca         1 XEB      -0.082000
     11 C10         -4.0480    -0.1400    -0.3070 ca         1 XEB       0.323000
     12 C11         -0.6240     1.6050    -0.4400 c3         1 XEB       0.208900
     13 O12          0.3080     0.6830     0.1490 os         1 XEB      -0.340100
     14 C21          1.6670     0.7700    -0.0680 ca         1 XEB       0.144100
     15 C22          2.2440     1.7670    -0.8830 ca         1 XEB      -0.191000
     16 C23          3.6370     1.8020    -1.0640 ca         1 XEB      -0.070000
     17 C24          4.4620     0.8500    -0.4400 ca         1 XEB       0.106000
     18 C25          3.8920    -0.1530     0.3790 ca         1 XEB      -0.040300
     19 C26          2.4930    -0.1790     0.5540 ca         1 XEB      -0.140000
     20 Cl           6.2040     0.9470    -0.7090 cl         1 XEB      -0.197000
     21 C28          4.7500    -1.2050     1.0790 c3         1 XEB       0.202100
     22 N29          4.9160    -2.4020     0.2300 n7         1 XEB      -0.848400
     23 C30          5.7150    -3.4880     0.8290 c3         1 XEB       0.143100
     24 HN02        -5.7850    -2.8300    -1.9670 hn         1 XEB       0.481000
     25 HN0A        -7.1890    -2.9380    -0.9770 hn         1 XEB       0.481000
     26 H03         -7.5950    -1.1630     0.7630 ha         1 XEB       0.121000
     27 H04         -6.3960     0.6070     2.0920 ha         1 XEB       0.118000
     28 H06         -4.3550     1.9710     2.3960 ha         1 XEB       0.113000
     29 H07         -2.0690     2.6010     1.6770 ha         1 XEB       0.121000
     30 H09         -2.2970    -0.2500    -1.5590 ha         1 XEB       0.129000
     31 H11         -0.5660     1.5680    -1.5360 h1         1 XEB       0.044200
     32 H11A        -0.4060     2.6330    -0.1200 h1         1 XEB       0.044200
     33 H22          1.6350     2.5170    -1.3800 ha         1 XEB       0.121000
     34 H23          4.0830     2.5700    -1.6930 ha         1 XEB       0.127000
     35 H26          2.0390    -0.9440     1.1800 ha         1 XEB       0.128000
     36 H28          5.7260    -0.7760     1.3420 h1         1 XEB       0.042200
     37 H28A         4.2640    -1.4780     2.0260 h1         1 XEB       0.042200
     38 HN29         3.9800    -2.7690     0.0160 hn         1 XEB       0.409000
     39 H30          5.7970    -4.3340     0.1340 h1         1 XEB       0.029700
     40 H30A         6.7300    -3.1420     1.0660 h1         1 XEB       0.029700
     41 H30B         5.2500    -3.8520     1.7550 h1         1 XEB       0.029700
@<TRIPOS>BOND
     1     1     2 ar  
     2     1    11 ar  
     3     2     3 1   
     4     2     4 ar  
     5     3    24 1   
     6     3    25 1   
     7     4     5 ar  
     8     4    26 1   
     9     5     6 ar  
    10     5    27 1   
    11     6     7 ar  
    12     6    11 ar  
    13     7     8 ar  
    14     7    28 1   
    15     8     9 ar  
    16     8    29 1   
    17     9    10 ar  
    18     9    12 1   
    19    10    11 ar  
    20    10    30 1   
    21    12    13 1   
    22    12    31 1   
    23    12    32 1   
    24    13    14 1   
    25    14    15 ar  
    26    14    19 ar  
    27    15    16 ar  
    28    15    33 1   
    29    16    17 ar  
    30    16    34 1   
    31    17    18 ar  
    32    17    20 1   
    33    18    19 ar  
    34    18    21 1   
    35    19    35 1   
    36    21    22 1   
    37    21    36 1   
    38    21    37 1   
    39    22    23 1   
    40    22    38 1   
    41    23    39 1   
    42    23    40 1   
    43    23    41 1   
@<TRIPOS>SUBSTRUCTURE
     1 XEB         1 TEMP              0 ****  ****    0 ROOT
