@<TRIPOS>MOLECULE
XED
   45    48     1     0     0
SMALL
bcc


@<TRIPOS>ATOM
      1 C1          -0.4500     1.2190    -3.4560 c6         1 XED       0.201800
      2 C2           0.2880     1.1720    -4.7810 c6         1 XED       0.161800
      3 N3          -0.1850    -0.0000    -2.7130 nh         1 XED      -0.647000
      4 N4          -0.0860    -0.0090    -5.5340 n3         1 XED      -0.715600
      5 C5          -0.5290    -1.2020    -3.4510 c6         1 XED       0.201800
      6 C6           0.2090    -1.2090    -4.7770 c6         1 XED       0.161800
      7 C7           0.5440    -0.0330    -6.8340 c3         1 XED       0.155100
      8 C8          -0.5330     0.0150    -1.3510 ca         1 XED       0.066600
      9 C9           0.4800    -0.0110    -0.4010 ca         1 XED       0.094100
     10 C10         -1.8510     0.0620    -0.8800 ca         1 XED       0.066900
     11 F11         -2.8380     0.0880    -1.7900 f          1 XED      -0.157900
     12 C12          0.1770    -0.0090     0.9760 ca         1 XED       0.108600
     13 C13         -2.1750     0.0980     0.4470 ca         1 XED      -0.114000
     14 C14         -1.1520     0.0590     1.3990 ca         1 XED      -0.164600
     15 O15          1.7500    -0.0440    -0.8330 os         1 XED      -0.290900
     16 N16          1.1910    -0.0890     1.9110 na         1 XED      -0.513800
     17 C17          0.8800    -0.0770     3.2140 cc         1 XED       0.070000
     18 C18          2.5640    -0.3210     1.4360 c6         1 XED       0.205500
     19 C19          2.7120     0.3940     0.1090 c6         1 XED       0.112400
     20 C20          3.6260     0.1640     2.4050 c3         1 XED      -0.102100
     21 C21         -0.3800     0.0200     3.7370 cd         1 XED      -0.302400
     22 C22         -1.5080     0.0840     2.8370 c          1 XED       0.591900
     23 O23          0.5970    -0.0250     5.8800 o          1 XED      -0.818800
     24 C24         -0.4840     0.0390     5.2560 c          1 XED       0.937800
     25 O25         -1.6170     0.1160     5.7600 o          1 XED      -0.818800
     26 O26         -2.6920     0.1510     3.1590 o          1 XED      -0.538100
     27 H1C1        -1.5210     1.3750    -3.6490 h1         1 XED       0.042450
     28 H1C2        -0.0900     2.0730    -2.8790 h1         1 XED       0.042450
     29 H2C1         0.0300     2.0620    -5.3610 h1         1 XED       0.032450
     30 H2C2         1.3750     1.2080    -4.5920 h1         1 XED       0.032450
     31 H5C1        -0.2240    -2.0750    -2.8710 h1         1 XED       0.042450
     32 H5C2        -1.6080    -1.2920    -3.6420 h1         1 XED       0.042450
     33 H6C1        -0.1100    -2.0810    -5.3530 h1         1 XED       0.032450
     34 H6C2         1.2910    -1.3180    -4.5890 h1         1 XED       0.032450
     35 H7C1         0.2060    -0.9040    -7.3970 h1         1 XED       0.024367
     36 H7C2         0.2700     0.8580    -7.4000 h1         1 XED       0.024367
     37 H7C3         1.6440    -0.0730    -6.7820 h1         1 XED       0.024367
     38 H13         -3.2080     0.1480     0.7630 ha         1 XED       0.172000
     39 H17          1.7080    -0.1480     3.9010 h4         1 XED       0.178000
     40 H18          2.6900    -1.3960     1.2720 h1         1 XED       0.060700
     41 H191         2.6320     1.4770     0.2550 h1         1 XED       0.057700
     42 H192         3.6870     0.1730    -0.3210 h1         1 XED       0.057700
     43 H201         4.6020     0.0680     1.9290 hc         1 XED       0.050033
     44 H202         3.4800     1.2120     2.6710 hc         1 XED       0.050033
     45 H203         3.6620    -0.4280     3.3160 hc         1 XED       0.050033
@<TRIPOS>BOND
     1     1     2 1   
     2     1     3 1   
     3     1    27 1   
     4     1    28 1   
     5     2     4 1   
     6     2    29 1   
     7     2    30 1   
     8     3     5 1   
     9     3     8 1   
    10     4     6 1   
    11     4     7 1   
    12     5     6 1   
    13     5    31 1   
    14     5    32 1   
    15     6    33 1   
    16     6    34 1   
    17     7    35 1   
    18     7    36 1   
    19     7    37 1   
    20     8     9 ar  
    21     8    10 ar  
    22     9    12 ar  
    23     9    15 1   
    24    10    11 1   
    25    10    13 ar  
    26    12    14 ar  
    27    12    16 1   
    28    13    14 ar  
    29    13    38 1   
    30    14    22 1   
    31    15    19 1   
    32    16    17 1   
    33    16    18 1   
    34    17    21 2   
    35    17    39 1   
    36    18    19 1   
    37    18    20 1   
    38    18    40 1   
    39    19    41 1   
    40    19    42 1   
    41    20    43 1   
    42    20    44 1   
    43    20    45 1   
    44    21    22 1   
    45    21    24 1   
    46    22    26 2   
    47    23    24 1   
    48    24    25 1   
@<TRIPOS>SUBSTRUCTURE
     1 XED         1 TEMP              0 ****  ****    0 ROOT
