@<TRIPOS>MOLECULE
XED
   45    48     1     0     0
SMALL
No Charge or Current Charge


@<TRIPOS>ATOM
      1 C1          -0.1130     1.2470    -3.3430 c6         1 XED       0.201800
      2 C2           0.7360     1.0430    -4.6420 c6         1 XED       0.161800
      3 N3          -0.5000    -0.0500    -2.7090 nh         1 XED      -0.785400
      4 N4           0.0860     0.1210    -5.6250 n3         1 XED      -0.715600
      5 C5          -1.0950    -1.0260    -3.6760 c6         1 XED       0.201800
      6 C6          -0.2240    -1.1860    -4.9660 c6         1 XED       0.161800
      7 C7           0.8760    -0.0390    -6.8640 c3         1 XED       0.155100
      8 C8          -0.7470    -0.1300    -1.3010 ca         1 XED       0.205000
      9 C9           0.3220     0.0270    -0.3760 ca         1 XED       0.094100
     10 C10         -2.0500    -0.3520    -0.7900 ca         1 XED       0.102000
     11 F11         -3.1200    -0.4770    -1.6120 f          1 XED      -0.193000
     12 C12          0.0980    -0.0610     1.0370 ca         1 XED       0.247000
     13 C13         -2.2720    -0.4130     0.5890 ca         1 XED      -0.096000
     14 C14         -1.2040    -0.2680     1.4990 ca         1 XED      -0.164600
     15 O15          1.6010     0.2370    -0.8760 os         1 XED      -0.314100
     16 N16          1.1810     0.0270     1.9490 na         1 XED      -0.652200
     17 C17          0.9820     0.2460     3.3320 cc         1 XED       0.020000
     18 C18          2.5540    -0.1150     1.3480 c6         1 XED       0.205500
     19 C19          2.6240     0.6820     0.0270 c6         1 XED       0.135600
     20 C20          3.7450     0.2710     2.2690 c3         1 XED      -0.102100
     21 C21         -0.3030     0.0400     3.8250 cd         1 XED      -0.302400
     22 C22         -1.4490    -0.3030     2.9600 c          1 XED       0.591900
     23 O23          0.4990     0.4370     5.9790 o          1 XED      -0.713500
     24 C24         -0.4840     0.1740     5.3020 c          1 XED       0.727200
     25 O25         -1.5820     0.0400     5.8160 o          1 XED      -0.713500
     26 O26         -2.5680    -0.5920     3.3710 o          1 XED      -0.538100
     27 H1C1        -1.0190     1.8150    -3.6000 h1         1 XED       0.042450
     28 H1C2         0.4660     1.8640    -2.6410 h1         1 XED       0.042450
     29 H2C1         0.9120     2.0260    -5.1020 h1         1 XED       0.032450
     30 H2C2         1.7210     0.6460    -4.3520 h1         1 XED       0.032450
     31 H5C1        -1.2050    -2.0130    -3.2020 h1         1 XED       0.042450
     32 H5C2        -2.0990    -0.6900    -3.9740 h1         1 XED       0.042450
     33 H6C1        -0.7560    -1.8470    -5.6660 h1         1 XED       0.032450
     34 H6C2         0.7110    -1.6970    -4.6920 h1         1 XED       0.032450
     35 H7C1         0.3470    -0.6830    -7.5790 h1         1 XED       0.024367
     36 H7C2         1.0440     0.9350    -7.3440 h1         1 XED       0.024367
     37 H7C3         1.8540    -0.4910    -6.6500 h1         1 XED       0.024367
     38 H13         -3.2880    -0.5680     0.9460 ha         1 XED       0.154000
     39 H17          1.8380     0.4860     3.9600 h4         1 XED       0.228000
     40 H18          2.6930    -1.1770     1.0940 h1         1 XED       0.060700
     41 H191         2.4760     1.7510     0.2320 h1         1 XED       0.057700
     42 H192         3.6030     0.5550    -0.4550 h1         1 XED       0.057700
     43 H201         4.6990     0.1570     1.7430 hc         1 XED       0.050033
     44 H202         3.6730     1.3140     2.6020 hc         1 XED       0.050033
     45 H203         3.7910    -0.3740     3.1550 hc         1 XED       0.050033
@<TRIPOS>BOND
     1     1     2 1   
     2     1     3 1   
     3     1    27 1   
     4     1    28 1   
     5     2     4 1   
     6     2    29 1   
     7     2    30 1   
     8     3     5 1   
     9     3     8 1   
    10     4     6 1   
    11     4     7 1   
    12     5     6 1   
    13     5    31 1   
    14     5    32 1   
    15     6    33 1   
    16     6    34 1   
    17     7    35 1   
    18     7    36 1   
    19     7    37 1   
    20     8     9 ar  
    21     8    10 ar  
    22     9    12 ar  
    23     9    15 1   
    24    10    11 1   
    25    10    13 ar  
    26    12    14 ar  
    27    12    16 1   
    28    13    14 ar  
    29    13    38 1   
    30    14    22 1   
    31    15    19 1   
    32    16    17 1   
    33    16    18 1   
    34    17    21 2   
    35    17    39 1   
    36    18    19 1   
    37    18    20 1   
    38    18    40 1   
    39    19    41 1   
    40    19    42 1   
    41    20    43 1   
    42    20    44 1   
    43    20    45 1   
    44    21    22 1   
    45    21    24 1   
    46    22    26 2   
    47    23    24 1   
    48    24    25 1   
@<TRIPOS>SUBSTRUCTURE
     1 XED         1 TEMP              0 ****  ****    0 ROOT
