@<TRIPOS>MOLECULE
XEG
   50    53     1     0     0
SMALL
No Charge or Current Charge


@<TRIPOS>ATOM
      1 OAA          1.0270    -0.2190    -2.0160 o          1 XEG      -0.467000
      2 OAC          1.4710     4.9230    -2.0130 oh         1 XEG      -0.531100
      3 OAD          1.9880     4.0700     0.5650 oh         1 XEG      -0.554100
      4 OAF          4.4630    -2.1450     2.6030 oh         1 XEG      -0.541600
      5 OAG         -4.0670    -3.7390     1.0400 oh         1 XEG      -0.531100
      6 OAH          6.6030    -1.4670     0.9880 oh         1 XEG      -0.551100
      7 CAI         -0.2690     3.2870    -2.2440 ca         1 XEG      -0.123000
      8 CAJ         -1.0190     2.2340    -1.6910 ca         1 XEG      -0.065000
      9 CAK         -5.7910    -2.1150     0.7870 ca         1 XEG      -0.276000
     10 CAL          3.7790    -0.5230    -1.1930 ca         1 XEG      -0.122000
     11 CAM          2.9150    -1.4140     0.9040 ca         1 XEG      -0.122000
     12 CAN         -5.2320     0.1770     0.2320 ca         1 XEG      -0.274000
     13 CAO          0.2520     2.4140     0.3820 ca         1 XEG      -0.146000
     14 CAP         -1.9650    -1.8470     0.4430 c6         1 XEG      -0.010100
     15 OAQ          0.2880    -1.0240    -0.0060 os         1 XEG      -0.451100
     16 OAR         -2.9630     0.8420    -0.0530 os         1 XEG      -0.334100
     17 CAS          1.2650    -0.6370    -0.8910 c          1 XEG       0.619700
     18 CAT         -6.1880    -0.8040     0.5130 ca         1 XEG       0.211100
     19 CAU          0.7380     3.9010    -1.4860 ca         1 XEG       0.135100
     20 CAV          1.0020     3.4670    -0.1710 ca         1 XEG       0.039100
     21 CAW          5.0910    -0.7240    -0.7370 ca         1 XEG       0.100100
     22 CAX          4.2310    -1.6140     1.3600 ca         1 XEG       0.100100
     23 CAY         -4.4320    -2.4550     0.7720 ca         1 XEG       0.211100
     24 CAZ          2.6730    -0.8660    -0.3810 ca         1 XEG      -0.100600
     25 CBA         -0.7630     1.7910    -0.3760 ca         1 XEG      -0.101300
     26 CBB          5.3220    -1.2690     0.5390 ca         1 XEG       0.046100
     27 CBC         -3.8720    -0.1540     0.2270 ca         1 XEG       0.211100
     28 CBD         -3.4570    -1.4810     0.4820 ca         1 XEG      -0.231300
     29 CBE         -1.1140    -0.7760    -0.2710 c6         1 XEG       0.141300
     30 CBF         -1.5630     0.6280     0.2270 c6         1 XEG       0.210600
     31 HOAB        -7.5940     0.4670     0.3140 ho         1 XEG       0.470000
     32 HOAC         2.1050     5.1870    -1.3080 ho         1 XEG       0.482000
     33 HOAD         2.0260     3.6500     1.4530 ho         1 XEG       0.472000
     34 HOAE         6.9590    -0.6140    -1.0130 ho         1 XEG       0.482000
     35 HOAF         3.6010    -2.3310     3.0380 ho         1 XEG       0.482000
     36 HOAG        -4.8810    -4.2550     1.2150 ho         1 XEG       0.470000
     37 HOAH         6.5270    -1.8530     1.8920 ho         1 XEG       0.495000
     38 HAI         -0.4680     3.6240    -3.2580 ha         1 XEG       0.134000
     39 HAJ         -1.7940     1.7580    -2.2880 ha         1 XEG       0.132000
     40 HAK         -6.5460    -2.8650     1.0080 ha         1 XEG       0.133000
     41 HAL          3.6220    -0.0980    -2.1820 ha         1 XEG       0.145000
     42 HAM          2.0820    -1.6840     1.5490 ha         1 XEG       0.145000
     43 HAN         -5.5310     1.2000     0.0220 ha         1 XEG       0.134000
     44 HAO          0.4560     2.0720     1.3940 ha         1 XEG       0.111000
     45 HAP         -1.6020    -1.9790     1.4710 hc         1 XEG       0.069700
     46 HAPA        -1.8180    -2.8100    -0.0650 hc         1 XEG       0.069700
     47 HBE         -1.3060    -0.8500    -1.3510 h1         1 XEG       0.092700
     48 HBF         -1.4410     0.6510     1.3190 h1         1 XEG       0.059700
     49 OAE          6.1510    -0.3900    -1.5290 oh         1 XEG      -0.541600
     50 OAB         -7.5090    -0.4870     0.5260 oh         1 XEG      -0.530100
@<TRIPOS>BOND
     1     1    17 2   
     2     2    19 1   
     3     2    32 1   
     4     3    20 1   
     5     3    33 1   
     6     4    22 1   
     7     4    35 1   
     8     5    23 1   
     9     5    36 1   
    10     6    26 1   
    11     6    37 1   
    12     7     8 ar  
    13     7    19 ar  
    14     7    38 1   
    15     8    25 ar  
    16     8    39 1   
    17     9    18 ar  
    18     9    23 ar  
    19     9    40 1   
    20    10    21 ar  
    21    10    24 ar  
    22    10    41 1   
    23    11    22 ar  
    24    11    24 ar  
    25    11    42 1   
    26    12    18 ar  
    27    12    27 ar  
    28    12    43 1   
    29    13    20 ar  
    30    13    25 ar  
    31    13    44 1   
    32    14    28 1   
    33    14    29 1   
    34    14    45 1   
    35    14    46 1   
    36    15    17 1   
    37    15    29 1   
    38    16    27 1   
    39    16    30 1   
    40    17    24 1   
    41    18    50 1   
    42    19    20 ar  
    43    21    26 ar  
    44    21    49 1   
    45    22    26 ar  
    46    23    28 ar  
    47    25    30 1   
    48    27    28 ar  
    49    29    30 1   
    50    29    47 1   
    51    30    48 1   
    52    31    50 1   
    53    34    49 1   
@<TRIPOS>SUBSTRUCTURE
     1 XEG         1 TEMP              0 ****  ****    0 ROOT
