@<TRIPOS>MOLECULE
XEG
   50    53     1     0     0
SMALL
bcc


@<TRIPOS>ATOM
      1 OAA          0.7970    -0.8010    -2.1480 o          1 XEG      -0.516000
      2 OAC          2.0000     4.3730    -1.6540 oh         1 XEG      -0.492100
      3 OAD          2.4930     3.1770     0.7290 oh         1 XEG      -0.515100
      4 OAF          4.3970    -0.7200     2.6540 oh         1 XEG      -0.502600
      5 OAG         -4.1370    -3.7250     0.7570 oh         1 XEG      -0.492100
      6 OAH          6.3730    -0.6020     0.8040 oh         1 XEG      -0.512100
      7 CAI         -0.0150     3.1590    -1.8660 ca         1 XEG      -0.141000
      8 CAJ         -0.9230     2.2240    -1.3870 ca         1 XEG      -0.083000
      9 CAK         -5.8460    -2.0640     0.6070 ca         1 XEG      -0.294000
     10 CAL          3.4920    -0.7860    -1.3700 ca         1 XEG      -0.140000
     11 CAM          2.7200    -0.8360     0.9180 ca         1 XEG      -0.140000
     12 CAN         -5.1790     0.2260     0.2360 ca         1 XEG      -0.292000
     13 CAO          0.4340     1.9290     0.5650 ca         1 XEG      -0.164000
     14 CAP         -2.0430    -1.9540     0.3190 c6         1 XEG      -0.010100
     15 OAQ          0.1640    -1.0840    -0.0180 os         1 XEG      -0.427900
     16 OAR         -2.9340     0.7940     0.0240 os         1 XEG      -0.310900
     17 CAS          1.0720    -0.9020    -0.9790 c          1 XEG       0.668700
     18 CAT         -6.1730    -0.7230     0.4230 ca         1 XEG       0.211100
     19 CAU          1.1310     3.4710    -1.1510 ca         1 XEG       0.135100
     20 CAV          1.3560     2.8400     0.0790 ca         1 XEG       0.039100
     21 CAW          4.8030    -0.7070    -0.9330 ca         1 XEG       0.100100
     22 CAX          4.0310    -0.7490     1.3540 ca         1 XEG       0.100100
     23 CAY         -4.5110    -2.4430     0.5870 ca         1 XEG       0.211100
     24 CAZ          2.4510    -0.8520    -0.4500 ca         1 XEG      -0.100600
     25 CBA         -0.7050     1.6030    -0.1650 ca         1 XEG      -0.101300
     26 CBB          5.0800    -0.6860     0.4350 ca         1 XEG       0.046100
     27 CBC         -3.8490    -0.1860     0.2210 ca         1 XEG       0.211100
     28 CBD         -3.4810    -1.5180     0.3830 ca         1 XEG      -0.231300
     29 CBE         -1.2120    -0.8480    -0.2960 c6         1 XEG       0.118100
     30 CBF         -1.5860     0.4970     0.3370 c6         1 XEG       0.187400
     31 HOAB        -7.5930     0.5500     0.3180 ho         1 XEG       0.431000
     32 HOAC         2.7520     4.4840    -1.0610 ho         1 XEG       0.443000
     33 HOAD         2.6030     2.6430     1.5230 ho         1 XEG       0.433000
     34 HOAE         6.6550    -0.6200    -1.4140 ho         1 XEG       0.443000
     35 HOAF         3.6310    -0.7980     3.2320 ho         1 XEG       0.443000
     36 HOAG        -4.9090    -4.2900     0.8750 ho         1 XEG       0.431000
     37 HOAH         6.4660    -0.6300     1.7640 ho         1 XEG       0.456000
     38 HAI         -0.1890     3.6470    -2.8170 ha         1 XEG       0.152000
     39 HAJ         -1.7940     1.9870    -1.9820 ha         1 XEG       0.150000
     40 HAK         -6.6290    -2.7980     0.7580 ha         1 XEG       0.151000
     41 HAL          3.2920    -0.7960    -2.4340 ha         1 XEG       0.163000
     42 HAM          1.9210    -0.8780     1.6480 ha         1 XEG       0.163000
     43 HAN         -5.4180     1.2740     0.1020 ha         1 XEG       0.152000
     44 HAO          0.6150     1.4590     1.5260 ha         1 XEG       0.129000
     45 HAP         -1.6630    -2.1870     1.3190 hc         1 XEG       0.069700
     46 HAPA        -1.9420    -2.8630    -0.2780 hc         1 XEG       0.069700
     47 HBE         -1.3830    -0.7950    -1.3740 h1         1 XEG       0.092700
     48 HBF         -1.4770     0.4070     1.4270 h1         1 XEG       0.059700
     49 OAE          5.7930    -0.6510    -1.8450 oh         1 XEG      -0.502600
     50 OAB         -7.4800    -0.3990     0.4450 oh         1 XEG      -0.491100
@<TRIPOS>BOND
     1     1    17 2   
     2     2    19 1   
     3     2    32 1   
     4     3    20 1   
     5     3    33 1   
     6     4    22 1   
     7     4    35 1   
     8     5    23 1   
     9     5    36 1   
    10     6    26 1   
    11     6    37 1   
    12     7     8 ar  
    13     7    19 ar  
    14     7    38 1   
    15     8    25 ar  
    16     8    39 1   
    17     9    18 ar  
    18     9    23 ar  
    19     9    40 1   
    20    10    21 ar  
    21    10    24 ar  
    22    10    41 1   
    23    11    22 ar  
    24    11    24 ar  
    25    11    42 1   
    26    12    18 ar  
    27    12    27 ar  
    28    12    43 1   
    29    13    20 ar  
    30    13    25 ar  
    31    13    44 1   
    32    14    28 1   
    33    14    29 1   
    34    14    45 1   
    35    14    46 1   
    36    15    17 1   
    37    15    29 1   
    38    16    27 1   
    39    16    30 1   
    40    17    24 1   
    41    18    50 1   
    42    19    20 ar  
    43    21    26 ar  
    44    21    49 1   
    45    22    26 ar  
    46    23    28 ar  
    47    25    30 1   
    48    27    28 ar  
    49    29    30 1   
    50    29    47 1   
    51    30    48 1   
    52    31    50 1   
    53    34    49 1   
@<TRIPOS>SUBSTRUCTURE
     1 XEG         1 TEMP              0 ****  ****    0 ROOT
