@<TRIPOS>MOLECULE
XEH
   27    28     1     0     0
SMALL
No Charge or Current Charge


@<TRIPOS>ATOM
      1 C1          19.3680    -7.5900    39.8030 ca         1 XEH       0.129000
      2 C2          20.3500    -8.2610    40.5470 ca         1 XEH      -0.105000
      3 C3          21.0300    -9.3580    39.9880 ca         1 XEH      -0.082500
      4 C4          20.7330    -9.7920    38.6790 ca         1 XEH      -0.114900
      5 C5          21.4740   -10.9620    38.1110 ce         1 XEH       0.351800
      6 C6          21.7550   -13.0330    35.1290 ca         1 XEH       0.321000
      7 C12         19.7420    -9.1090    37.9380 ca         1 XEH      -0.082500
      8 C13         19.0630    -8.0120    38.5000 ca         1 XEH      -0.105000
      9 Cl1         18.5190    -6.2190    40.5040 cl         1 XEH      -0.209000
     10 N1          21.2460   -11.4110    36.9100 n2         1 XEH      -0.376400
     11 N2          21.9390   -12.4860    36.4120 nu         1 XEH      -0.667300
     12 C7          20.8120   -12.5020    34.2220 ca         1 XEH      -0.138500
     13 C8          20.6500   -13.0710    32.9440 ca         1 XEH      -0.109500
     14 C9          21.4310   -14.1740    32.5670 ca         1 XEH       0.123000
     15 F1          21.2770   -14.7200    31.3420 f          1 XEH      -0.186000
     16 C10         22.3720   -14.7120    33.4590 ca         1 XEH      -0.109500
     17 C11         22.5320   -14.1410    34.7370 ca         1 XEH      -0.138500
     18 H1          20.5850    -7.9320    41.5570 ha         1 XEH       0.131500
     19 H2          21.7900    -9.8710    40.5740 ha         1 XEH       0.124500
     20 H3          22.2230   -11.4270    38.7580 h4         1 XEH      -0.013200
     21 H5          19.4920    -9.4220    36.9260 ha         1 XEH       0.124500
     22 H6          18.3020    -7.4910    37.9260 ha         1 XEH       0.131500
     23 H8          22.6570   -12.9680    36.9700 hn         1 XEH       0.483000
     24 H9          20.2020   -11.6480    34.5050 ha         1 XEH       0.126000
     25 H10         19.9220   -12.6580    32.2490 ha         1 XEH       0.132500
     26 H11         22.9740   -15.5670    33.1610 ha         1 XEH       0.132500
     27 H12         23.2630   -14.5630    35.4210 ha         1 XEH       0.126000
@<TRIPOS>BOND
     1     1     2 ar  
     2     1     8 ar  
     3     1     9 1   
     4     2     3 ar  
     5     2    18 1   
     6     3     4 ar  
     7     3    19 1   
     8     4     5 1   
     9     4     7 ar  
    10     5    10 2   
    11     5    20 1   
    12     6    11 1   
    13     6    12 ar  
    14     6    17 ar  
    15     7     8 ar  
    16     7    21 1   
    17     8    22 1   
    18    10    11 1   
    19    11    23 1   
    20    12    13 ar  
    21    12    24 1   
    22    13    14 ar  
    23    13    25 1   
    24    14    15 1   
    25    14    16 ar  
    26    16    17 ar  
    27    16    26 1   
    28    17    27 1   
@<TRIPOS>SUBSTRUCTURE
     1 XEH         1 TEMP              0 ****  ****    0 ROOT
