@<TRIPOS>MOLECULE
XEH
   27    28     1     0     0
SMALL
abcg2


@<TRIPOS>ATOM
      1 C1          19.4080    -7.6650    39.7630 ca         1 XEH       0.129000
      2 C2          20.3640    -8.3480    40.4990 ca         1 XEH      -0.105000
      3 C3          21.0210    -9.4230    39.9150 ca         1 XEH      -0.082500
      4 C4          20.7340    -9.8250    38.6050 ca         1 XEH      -0.114900
      5 C5          21.4510   -10.9620    38.0460 ce         1 XEH       0.351800
      6 C6          21.7410   -12.9840    35.1610 ca         1 XEH       0.321000
      7 C12         19.7630    -9.1110    37.8860 ca         1 XEH      -0.082500
      8 C13         19.1010    -8.0380    38.4570 ca         1 XEH      -0.105000
      9 CL1         18.5700    -6.3090    40.4870 cl         1 XEH      -0.209000
     10 N1          21.2270   -11.3930    36.8570 n2         1 XEH      -0.376400
     11 N2          21.9320   -12.4430    36.4230 nu         1 XEH      -0.667300
     12 C7          20.7930   -12.4740    34.2660 ca         1 XEH      -0.138500
     13 C8          20.6350   -13.0540    33.0130 ca         1 XEH      -0.109500
     14 C9          21.4230   -14.1350    32.6660 ca         1 XEH       0.123000
     15 F1          21.2630   -14.7040    31.4380 f          1 XEH      -0.186000
     16 C10         22.3690   -14.6590    33.5290 ca         1 XEH      -0.109500
     17 C11         22.5270   -14.0790    34.7790 ca         1 XEH      -0.138500
     18 H1          20.5930    -8.0470    41.5120 ha         1 XEH       0.131500
     19 H2          21.7680    -9.9610    40.4860 ha         1 XEH       0.124500
     20 H3          22.1950   -11.4430    38.6860 h4         1 XEH      -0.013200
     21 H5          19.5280    -9.4030    36.8710 ha         1 XEH       0.124500
     22 H6          18.3530    -7.4920    37.8980 ha         1 XEH       0.131500
     23 H8          22.6190   -12.8700    37.0350 hn         1 XEH       0.483000
     24 H9          20.1840   -11.6300    34.5520 ha         1 XEH       0.126000
     25 H10         19.9050   -12.6690    32.3140 ha         1 XEH       0.132500
     26 H11         22.9720   -15.5050    33.2270 ha         1 XEH       0.132500
     27 H12         23.2630   -14.4760    35.4670 ha         1 XEH       0.126000
@<TRIPOS>BOND
     1     1     2 ar  
     2     1     8 ar  
     3     1     9 1   
     4     2     3 ar  
     5     2    18 1   
     6     3     4 ar  
     7     3    19 1   
     8     4     5 1   
     9     4     7 ar  
    10     5    10 2   
    11     5    20 1   
    12     6    11 1   
    13     6    12 ar  
    14     6    17 ar  
    15     7     8 ar  
    16     7    21 1   
    17     8    22 1   
    18    10    11 1   
    19    11    23 1   
    20    12    13 ar  
    21    12    24 1   
    22    13    14 ar  
    23    13    25 1   
    24    14    15 1   
    25    14    16 ar  
    26    16    17 ar  
    27    16    26 1   
    28    17    27 1   
@<TRIPOS>SUBSTRUCTURE
     1 XEH         1 TEMP              0 ****  ****    0 ROOT
