@<TRIPOS>MOLECULE
XEJ
   17    16     1     0     0
SMALL
bcc


@<TRIPOS>ATOM
      1 C01        -13.7250    11.9010    12.8600 c3         1 XEJ      -0.093100
      2 C02        -12.8060    11.7800    14.0670 c3         1 XEJ       0.172500
      3 N03        -11.6160    12.5940    13.8450 n8         1 XEJ      -0.893800
      4 C04        -13.4920    12.2740    15.3420 c3         1 XEJ      -0.160400
      5 C05        -14.6760    11.4140    15.7270 c          1 XEJ       0.671100
      6 N06        -15.8430    12.0630    15.8630 nt         1 XEJ      -0.677000
      7 O07        -14.5670    10.2080    15.9010 o          1 XEJ      -0.612100
      8 H011       -14.6200    11.2870    12.9710 hc         1 XEJ       0.040033
      9 H013       -14.0380    12.9360    12.7130 hc         1 XEJ       0.040033
     10 H012       -13.2180    11.5710    11.9510 hc         1 XEJ       0.040033
     11 H021       -12.5630    10.7170    14.2060 h1         1 XEJ       0.039700
     12 H1         -10.9600    12.4460    14.6030 hn         1 XEJ       0.339800
     13 H031       -11.1430    12.2700    13.0100 hn         1 XEJ       0.339800
     14 H042       -12.7800    12.2350    16.1730 hc         1 XEJ       0.063700
     15 H041       -13.7770    13.3210    15.2160 hc         1 XEJ       0.063700
     16 H061       -16.6770    11.5650    16.1280 hn         1 XEJ       0.313000
     17 H062       -15.9230    13.0540    15.7130 hn         1 XEJ       0.313000
@<TRIPOS>BOND
     1     1     2 1   
     2     1     8 1   
     3     1     9 1   
     4     1    10 1   
     5     2     3 1   
     6     2     4 1   
     7     2    11 1   
     8     3    12 1   
     9     3    13 1   
    10     4     5 1   
    11     4    14 1   
    12     4    15 1   
    13     5     6 1   
    14     5     7 2   
    15     6    16 1   
    16     6    17 1   
@<TRIPOS>SUBSTRUCTURE
     1 XEJ         1 TEMP              0 ****  ****    0 ROOT
