@<TRIPOS>MOLECULE
XEJ
   17    16     1     0     0
SMALL
No Charge or Current Charge


@<TRIPOS>ATOM
      1 C01        -13.7910    11.9640    12.8880 c3         1 XEJ      -0.093100
      2 C02        -12.8260    11.8190    14.0850 c3         1 XEJ       0.172500
      3 N03        -11.5960    12.5810    13.8210 n8         1 XEJ      -1.004200
      4 C04        -13.4340    12.2730    15.4280 c3         1 XEJ      -0.160400
      5 C05        -14.6440    11.4240    15.8180 c          1 XEJ       0.604100
      6 N06        -15.8540    12.0120    15.7000 nt         1 XEJ      -0.610000
      7 O07        -14.5530    10.2850    16.2430 o          1 XEJ      -0.612100
      8 H011       -14.6750    11.3280    13.0190 hc         1 XEJ       0.040033
      9 H013       -14.1290    13.0020    12.7790 hc         1 XEJ       0.040033
     10 H012       -13.3020    11.6610    11.9550 hc         1 XEJ       0.040033
     11 H021       -12.5460    10.7580    14.1700 h1         1 XEJ       0.039700
     12 H1         -10.9060    12.3640    14.5500 hn         1 XEJ       0.395000
     13 H031       -11.1580    12.2220    12.9650 hn         1 XEJ       0.395000
     14 H042       -12.6740    12.1620    16.2110 hc         1 XEJ       0.063700
     15 H041       -13.7270    13.3260    15.3420 hc         1 XEJ       0.063700
     16 H061       -16.6810    11.4950    15.9580 hn         1 XEJ       0.313000
     17 H062       -15.9260    12.9590    15.3590 hn         1 XEJ       0.313000
@<TRIPOS>BOND
     1     1     2 1   
     2     1     8 1   
     3     1     9 1   
     4     1    10 1   
     5     2     3 1   
     6     2     4 1   
     7     2    11 1   
     8     3    12 1   
     9     3    13 1   
    10     4     5 1   
    11     4    14 1   
    12     4    15 1   
    13     5     6 1   
    14     5     7 2   
    15     6    16 1   
    16     6    17 1   
@<TRIPOS>SUBSTRUCTURE
     1 XEJ         1 TEMP              0 ****  ****    0 ROOT
