@<TRIPOS>MOLECULE
XEK
   58    62     1     0     0
SMALL
No Charge or Current Charge


@<TRIPOS>ATOM
      1 C1         -20.0100    -4.4410   -27.5870 c          1 XEK       0.564200
      2 C2         -21.4280    -4.3220   -27.9850 cc         1 XEK      -0.170400
      3 C3         -21.8210    -4.1160   -29.3790 ca         1 XEK       0.000200
      4 C4         -22.5470    -2.9690   -29.7530 ca         1 XEK      -0.112000
      5 C5         -22.9220    -2.7720   -31.0920 ca         1 XEK       0.096000
      6 C6         -22.5720    -3.7230   -32.0680 ca         1 XEK       0.150000
      7 C7         -21.8440    -4.8760   -31.7080 ca         1 XEK       0.115100
      8 C9         -20.5500    -7.7240   -33.7410 ca         1 XEK      -0.090300
      9 C10        -21.3710    -8.8300   -34.0440 ca         1 XEK      -0.083000
     10 C11        -21.2030    -9.5330   -35.2490 ca         1 XEK      -0.114000
     11 C12        -20.2120    -9.1380   -36.1630 ca         1 XEK      -0.089000
     12 C13        -19.3910    -8.0360   -35.8700 ca         1 XEK      -0.109000
     13 C14        -19.5570    -7.3300   -34.6660 ca         1 XEK       0.148000
     14 C15        -21.4710    -5.0660   -30.3570 ca         1 XEK      -0.149000
     15 C17        -22.1950    -4.5560   -25.6770 cd         1 XEK      -0.139000
     16 C22        -25.4440    -4.7490   -22.8120 c          1 XEK       0.612000
     17 C24        -18.4290    -4.6760   -25.6660 ca         1 XEK      -0.042400
     18 C25        -17.4160    -5.4380   -26.2900 ca         1 XEK      -0.045000
     19 C27        -15.9330    -4.8730   -24.4580 ca         1 XEK       0.345900
     20 C16        -22.4760    -4.3690   -27.0870 cd         1 XEK      -0.069000
     21 C18        -23.2390    -4.6190   -24.6360 cd         1 XEK      -0.219200
     22 C19        -23.0240    -4.6850   -23.1450 c          1 XEK       0.593200
     23 C20        -24.5580    -4.6140   -25.0850 cc         1 XEK       0.009600
     24 C23        -20.8620    -4.7040   -25.3080 cc         1 XEK       0.016600
     25 C26        -16.1520    -5.5200   -25.6830 ca         1 XEK      -0.159000
     26 C28        -18.1190    -4.1050   -24.4040 ca         1 XEK       0.349900
     27 F1         -22.9350    -3.5290   -33.3600 f          1 XEK      -0.147000
     28 N1         -24.1570    -4.7490   -22.4010 ns         1 XEK      -0.466500
     29 N2         -25.6370    -4.6740   -24.1990 n          1 XEK      -0.306000
     30 N3         -19.7830    -4.6550   -26.2050 n          1 XEK      -0.187200
     31 N4         -16.9000    -4.1800   -23.8170 nb         1 XEK      -0.654000
     32 O1         -19.0980    -4.3280   -28.3980 o          1 XEK      -0.529000
     33 O2         -21.5150    -5.7870   -32.6970 os         1 XEK      -0.320100
     34 O3         -21.9470    -4.6700   -22.5740 o          1 XEK      -0.527000
     35 Cl1        -23.8300    -1.3250   -31.5290 cl         1 XEK      -0.168000
     36 Cl2        -18.5030    -5.9500   -34.3470 cl         1 XEK      -0.187000
     37 H1         -22.8150    -2.2250   -29.0070 ha         1 XEK       0.134000
     38 H2         -19.7770    -6.7240   -31.9920 h1         1 XEK       0.050700
     39 H3         -21.2820    -7.6190   -31.7170 h1         1 XEK       0.050700
     40 H4         -22.1440    -9.1440   -33.3460 ha         1 XEK       0.115000
     41 H5         -21.8410   -10.3850   -35.4750 ha         1 XEK       0.119000
     42 H6         -20.0820    -9.6820   -37.0960 ha         1 XEK       0.119000
     43 H7         -18.6250    -7.7270   -36.5770 ha         1 XEK       0.132000
     44 H8         -20.9130    -5.9440   -30.0480 ha         1 XEK       0.132000
     45 H13        -27.5830    -3.8300   -24.2570 h1         1 XEK       0.058033
     46 H14        -27.0590    -4.5690   -25.7920 h1         1 XEK       0.058033
     47 H12        -27.5280    -5.6090   -24.4220 h1         1 XEK       0.058033
     48 H16        -17.6000    -5.9730   -27.2180 ha         1 XEK       0.132000
     49 H18        -14.9620    -4.9230   -23.9670 h4         1 XEK       0.025100
     50 H9         -23.4790    -4.2510   -27.4760 ha         1 XEK       0.188000
     51 H11        -24.9070    -4.5900   -26.1070 h4         1 XEK       0.208000
     52 H15        -20.5150    -4.9300   -24.3140 h4         1 XEK       0.221000
     53 H17        -15.3500    -6.0880   -26.1460 ha         1 XEK       0.130000
     54 H19        -18.8660    -3.5350   -23.8520 h4         1 XEK       0.037100
     55 H10        -24.0200    -4.7950   -21.4050 hn         1 XEK       0.347500
     56 O4         -26.3590    -4.8100   -22.0070 o          1 XEK      -0.543000
     57 C8         -20.7510    -6.9750   -32.4290 c3         1 XEK       0.211900
     58 C21        -27.0320    -4.6700   -24.7000 c3         1 XEK       0.094300
@<TRIPOS>BOND
     1     1     2 1   
     2     1    30 1   
     3     1    32 2   
     4     2     3 1   
     5     2    20 2   
     6     3     4 ar  
     7     3    14 ar  
     8     4     5 ar  
     9     4    37 1   
    10     5     6 ar  
    11     5    35 1   
    12     6     7 ar  
    13     6    27 1   
    14     7    14 ar  
    15     7    33 1   
    16     8     9 ar  
    17     8    13 ar  
    18     8    57 1   
    19     9    10 ar  
    20     9    40 1   
    21    10    11 ar  
    22    10    41 1   
    23    11    12 ar  
    24    11    42 1   
    25    12    13 ar  
    26    12    43 1   
    27    13    36 1   
    28    14    44 1   
    29    15    20 1   
    30    15    21 1   
    31    15    24 2   
    32    16    28 1   
    33    16    29 1   
    34    16    56 2   
    35    17    18 ar  
    36    17    26 ar  
    37    17    30 1   
    38    18    25 ar  
    39    18    48 1   
    40    19    25 ar  
    41    19    31 ar  
    42    19    49 1   
    43    20    50 1   
    44    21    22 1   
    45    21    23 2   
    46    22    28 1   
    47    22    34 2   
    48    23    29 1   
    49    23    51 1   
    50    24    30 1   
    51    24    52 1   
    52    25    53 1   
    53    26    31 ar  
    54    26    54 1   
    55    28    55 1   
    56    29    58 1   
    57    33    57 1   
    58    38    57 1   
    59    39    57 1   
    60    45    58 1   
    61    46    58 1   
    62    47    58 1   
@<TRIPOS>SUBSTRUCTURE
     1 XEK         1 TEMP              0 ****  ****    0 ROOT
