@<TRIPOS>MOLECULE
XEK
   58    62     1     0     0
SMALL
abcg2


@<TRIPOS>ATOM
      1 C1         -20.1540    -4.6990   -27.5740 c          1 XEK       0.564200
      2 C2         -21.5170    -4.4050   -27.9640 cc         1 XEK      -0.170400
      3 C3         -21.8080    -4.1550   -29.3900 ca         1 XEK       0.000200
      4 C4         -22.5140    -3.0140   -29.7450 ca         1 XEK      -0.112000
      5 C5         -22.8270    -2.7900   -31.0790 ca         1 XEK       0.096000
      6 C6         -22.4360    -3.6880   -32.0440 ca         1 XEK       0.150000
      7 C7         -21.7290    -4.8440   -31.7060 ca         1 XEK       0.115100
      8 C9         -20.4070    -7.4770   -33.7970 ca         1 XEK      -0.090300
      9 C10        -21.0330    -8.6870   -34.0740 ca         1 XEK      -0.083000
     10 C11        -20.8520    -9.3320   -35.2890 ca         1 XEK      -0.114000
     11 C12        -20.0380    -8.7610   -36.2550 ca         1 XEK      -0.089000
     12 C13        -19.4040    -7.5520   -36.0050 ca         1 XEK      -0.109000
     13 C14        -19.5960    -6.9230   -34.7860 ca         1 XEK       0.148000
     14 C15        -21.4130    -5.0660   -30.3740 ca         1 XEK      -0.149000
     15 C17        -22.2470    -4.4760   -25.6390 cd         1 XEK      -0.139000
     16 C22        -25.4360    -4.1250   -22.7800 c          1 XEK       0.612000
     17 C24        -18.6480    -5.0990   -25.7260 ca         1 XEK      -0.042400
     18 C25        -17.9850    -6.2860   -25.9920 ca         1 XEK      -0.045000
     19 C27        -16.1650    -5.4190   -24.7160 ca         1 XEK       0.345900
     20 C16        -22.4960    -4.2960   -27.0230 cd         1 XEK      -0.069000
     21 C18        -23.3170    -4.3650   -24.6400 cd         1 XEK      -0.219200
     22 C19        -23.1150    -3.5670   -23.4430 c          1 XEK       0.593200
     23 C20        -24.5190    -4.9550   -24.8170 cc         1 XEK       0.009600
     24 C23        -20.9680    -4.7620   -25.2790 cc         1 XEK       0.016600
     25 C26        -16.7120    -6.4460   -25.4730 ca         1 XEK      -0.159000
     26 C28        -18.0190    -4.1280   -24.9630 ca         1 XEK       0.349900
     27 F1         -22.7260    -3.4660   -33.3260 f          1 XEK      -0.147000
     28 N1         -24.2170    -3.5220   -22.6080 ns         1 XEK      -0.466500
     29 N2         -25.5550    -4.8500   -23.9430 n          1 XEK      -0.306000
     30 N3         -19.9730    -4.8650   -26.1980 n          1 XEK      -0.187200
     31 N4         -16.8030    -4.2840   -24.4600 nb         1 XEK      -0.654000
     32 O1         -19.2000    -4.7830   -28.3320 o          1 XEK      -0.529000
     33 O2         -21.4270    -5.6510   -32.7320 os         1 XEK      -0.320100
     34 O3         -22.0970    -2.9680   -23.1530 o          1 XEK      -0.527000
     35 CL1        -23.6910    -1.3780   -31.5540 cl         1 XEK      -0.168000
     36 CL2        -18.7880    -5.4170   -34.4960 cl         1 XEK      -0.187000
     37 H1         -22.8080    -2.2910   -28.9970 ha         1 XEK       0.134000
     38 H2         -19.6790    -6.5100   -32.0190 h1         1 XEK       0.050700
     39 H3         -21.1400    -7.4810   -31.7950 h1         1 XEK       0.050700
     40 H4         -21.6720    -9.1300   -33.3190 ha         1 XEK       0.115000
     41 H5         -21.3480   -10.2740   -35.4800 ha         1 XEK       0.119000
     42 H6         -19.8900    -9.2520   -37.2070 ha         1 XEK       0.119000
     43 H7         -18.7670    -7.1020   -36.7550 ha         1 XEK       0.132000
     44 H8         -20.8780    -5.9590   -30.0840 ha         1 XEK       0.132000
     45 H13        -27.6370    -4.8050   -24.2420 h1         1 XEK       0.058033
     46 H14        -26.7560    -6.0380   -25.1480 h1         1 XEK       0.058033
     47 H12        -27.0320    -6.2520   -23.4160 h1         1 XEK       0.058033
     48 H16        -18.4550    -7.0670   -26.5750 ha         1 XEK       0.132000
     49 H18        -15.1710    -5.5220   -24.2970 h4         1 XEK       0.025100
     50 H9         -23.5060    -4.0610   -27.3410 ha         1 XEK       0.188000
     51 H11        -24.7180    -5.5650   -25.6880 h4         1 XEK       0.208000
     52 H15        -20.6740    -4.9400   -24.2550 h4         1 XEK       0.221000
     53 H17        -16.1510    -7.3540   -25.6460 ha         1 XEK       0.130000
     54 H19        -18.5270    -3.1920   -24.7500 h4         1 XEK       0.037100
     55 H10        -24.1180    -2.9810   -21.7570 hn         1 XEK       0.347500
     56 O4         -26.3340    -4.0300   -21.9720 o          1 XEK      -0.543000
     57 C8         -20.6290    -6.7990   -32.4810 c3         1 XEK       0.211900
     58 C21        -26.8220    -5.5230   -24.1950 c3         1 XEK       0.094300
@<TRIPOS>BOND
     1     1     2 1   
     2     1    30 1   
     3     1    32 2   
     4     2     3 1   
     5     2    20 2   
     6     3     4 ar  
     7     3    14 ar  
     8     4     5 ar  
     9     4    37 1   
    10     5     6 ar  
    11     5    35 1   
    12     6     7 ar  
    13     6    27 1   
    14     7    14 ar  
    15     7    33 1   
    16     8     9 ar  
    17     8    13 ar  
    18     8    57 1   
    19     9    10 ar  
    20     9    40 1   
    21    10    11 ar  
    22    10    41 1   
    23    11    12 ar  
    24    11    42 1   
    25    12    13 ar  
    26    12    43 1   
    27    13    36 1   
    28    14    44 1   
    29    15    20 1   
    30    15    21 1   
    31    15    24 2   
    32    16    28 1   
    33    16    29 1   
    34    16    56 2   
    35    17    18 ar  
    36    17    26 ar  
    37    17    30 1   
    38    18    25 ar  
    39    18    48 1   
    40    19    25 ar  
    41    19    31 ar  
    42    19    49 1   
    43    20    50 1   
    44    21    22 1   
    45    21    23 2   
    46    22    28 1   
    47    22    34 2   
    48    23    29 1   
    49    23    51 1   
    50    24    30 1   
    51    24    52 1   
    52    25    53 1   
    53    26    31 ar  
    54    26    54 1   
    55    28    55 1   
    56    29    58 1   
    57    33    57 1   
    58    38    57 1   
    59    39    57 1   
    60    45    58 1   
    61    46    58 1   
    62    47    58 1   
@<TRIPOS>SUBSTRUCTURE
     1 XEK         1 TEMP              0 ****  ****    0 ROOT
