@<TRIPOS>MOLECULE
XEL
   27    28     1     0     0
SMALL
No Charge or Current Charge


@<TRIPOS>ATOM
      1 Cl1         20.2440    -5.6090    40.6480 cl         1 XEL      -0.208000
      2 C1          20.2190    -7.1820    39.8620 ca         1 XEL       0.130000
      3 C2          19.5340    -8.2520    40.4570 ca         1 XEL      -0.105000
      4 C3          19.5130    -9.5100    39.8280 ca         1 XEL      -0.081500
      5 C4          20.1770    -9.7090    38.6000 ca         1 XEL      -0.116900
      6 C5          20.1360   -11.0590    37.9560 ce         1 XEL       0.357800
      7 N1          20.7300   -11.3050    36.8220 n2         1 XEL      -0.377400
      8 N2          20.6780   -12.5530    36.2520 nu         1 XEL      -0.666300
      9 C6          21.2870   -12.9050    35.0350 ca         1 XEL       0.361000
     10 C7          21.1530   -14.2210    34.5670 ca         1 XEL      -0.227000
     11 C8          21.7500   -14.5990    33.3570 ca         1 XEL       0.203000
     12 F1          21.6170   -15.8680    32.9130 f          1 XEL      -0.185000
     13 C9          22.4840   -13.6730    32.6030 ca         1 XEL      -0.187000
     14 C10         22.6240   -12.3530    33.0620 ca         1 XEL      -0.053000
     15 C11         22.0250   -11.9730    34.2770 ca         1 XEL      -0.162000
     16 C12         20.8640    -8.6230    38.0090 ca         1 XEL      -0.081500
     17 C13         20.8840    -7.3660    38.6400 ca         1 XEL      -0.105000
     18 H1          19.0190    -8.1070    41.4030 ha         1 XEL       0.132000
     19 H2          18.9780   -10.3330    40.2990 ha         1 XEL       0.124500
     20 H3          19.5810   -11.8370    38.4870 h4         1 XEL      -0.013200
     21 H6          20.1720   -13.3290    36.6980 hn         1 XEL       0.485000
     22 H7          20.5890   -14.9530    35.1360 ha         1 XEL       0.129000
     23 H8          22.9420   -13.9780    31.6650 ha         1 XEL       0.135000
     24 H9          23.1920   -11.6290    32.4820 ha         1 XEL       0.118000
     25 H10         22.1370   -10.9510    34.6260 ha         1 XEL       0.137000
     26 H11         21.3850    -8.7470    37.0620 ha         1 XEL       0.124500
     27 H12         21.4140    -6.5350    38.1810 ha         1 XEL       0.132000
@<TRIPOS>BOND
     1     1     2 1   
     2     2     3 ar  
     3     2    17 ar  
     4     3     4 ar  
     5     3    18 1   
     6     4     5 ar  
     7     4    19 1   
     8     5     6 1   
     9     5    16 ar  
    10     6     7 2   
    11     6    20 1   
    12     7     8 1   
    13     8     9 1   
    14     8    21 1   
    15     9    10 ar  
    16     9    15 ar  
    17    10    11 ar  
    18    10    22 1   
    19    11    12 1   
    20    11    13 ar  
    21    13    14 ar  
    22    13    23 1   
    23    14    15 ar  
    24    14    24 1   
    25    15    25 1   
    26    16    17 ar  
    27    16    26 1   
    28    17    27 1   
@<TRIPOS>SUBSTRUCTURE
     1 XEL         1 TEMP              0 ****  ****    0 ROOT
