@<TRIPOS>MOLECULE
XEM
   12    11     1     0     0
SMALL
abcg2


@<TRIPOS>ATOM
      1 C1        -114.4600    25.8060    11.7140 c3         1 XEM      -0.089100
      2 C2        -114.6420    27.2730    12.0960 c3         1 XEM      -0.061400
      3 C3        -113.5310    28.1950    11.5830 c3         1 XEM      -0.035200
      4 N1        -113.5650    28.2570    10.1120 n2         1 XEM       0.000100
      5 O1        -113.5950    29.3720     9.6570 o          1 XEM      -0.171300
      6 H1        -115.2610    25.1980    12.1380 hc         1 XEM       0.039033
      7 H2        -114.4720    25.6690    10.6320 hc         1 XEM       0.039033
      8 H3        -113.5090    25.4220    12.0910 hc         1 XEM       0.039033
      9 H4        -114.6550    27.3750    13.1830 hc         1 XEM       0.046700
     10 H5        -115.6050    27.6460    11.7360 hc         1 XEM       0.046700
     11 H6        -112.5540    27.7580    11.8200 h1         1 XEM       0.072700
     12 H7        -113.5970    29.2060    11.9920 h1         1 XEM       0.072700
@<TRIPOS>BOND
     1     1     2 1   
     2     1     6 1   
     3     1     7 1   
     4     1     8 1   
     5     2     3 1   
     6     2     9 1   
     7     2    10 1   
     8     3     4 1   
     9     3    11 1   
    10     3    12 1   
    11     4     5 2   
@<TRIPOS>SUBSTRUCTURE
     1 XEM         1 TEMP              0 ****  ****    0 ROOT
