@<TRIPOS>MOLECULE
XEM
   12    11     1     0     0
SMALL
No Charge or Current Charge


@<TRIPOS>ATOM
      1 C1         114.4460    25.8020    11.6860 c3         1 XEM      -0.089100
      2 C2        -114.6560    27.2590    12.1530 c3         1 XEM      -0.061400
      3 C3         113.6470    28.2630    11.5500 c3         1 XEM      -0.035200
      4 N1        -113.8210    28.3790    10.1030 n2         1 XEM       0.000100
      5 O1         113.0150    29.1270     9.5750 o          1 XEM      -0.171300
      6 H1        -115.1620    25.1360    12.1840 hc         1 XEM       0.039033
      7 H2         114.5920    25.7090    10.6030 hc         1 XEM       0.039033
      8 H3        -113.4330    25.4590    11.9300 hc         1 XEM       0.039033
      9 H4         114.5700    27.2910    13.2460 hc         1 XEM       0.046700
     10 H5        -115.6780    27.5750    11.9100 hc         1 XEM       0.046700
     11 H6         112.6270    27.9350    11.7900 h1         1 XEM       0.072700
     12 H7        -113.7990    29.2410    12.0240 h1         1 XEM       0.072700
@<TRIPOS>BOND
     1     1     2 1   
     2     1     6 1   
     3     1     7 1   
     4     1     8 1   
     5     2     3 1   
     6     2     9 1   
     7     2    10 1   
     8     3     4 1   
     9     3    11 1   
    10     3    12 1   
    11     4     5 2   
@<TRIPOS>SUBSTRUCTURE
     1 XEM         1 TEMP              0 ****  ****    0 ROOT
