@<TRIPOS>MOLECULE
XEN
   31    31     1     0     0
SMALL
bcc


@<TRIPOS>ATOM
      1 C1          -4.8650     1.1140    -0.9320 c3         1 XEN      -0.089100
      2 C2          -4.0760     0.5130     0.2230 c3         1 XEN      -0.073400
      3 C3          -2.6500     0.1460    -0.1700 c3         1 XEN      -0.110400
      4 C4          -1.8480    -0.3920     1.0110 c3         1 XEN       0.219800
      5 N5          -0.4840    -0.7490     0.6810 nh         1 XEN      -0.669400
      6 C6           0.4610     0.2070     0.6130 c2         1 XEN       0.166000
      7 C7           1.7060     0.0450     0.0950 ce         1 XEN      -0.352400
      8 C8           2.1280    -1.3010    -0.4350 c6         1 XEN      -0.007200
      9 C9           1.2250    -2.3950     0.1280 c6         1 XEN      -0.087400
     10 C10         -0.2410    -2.0140     0.0160 c6         1 XEN       0.214800
     11 C11          2.5870     1.2120     0.0780 c          1 XEN       0.701300
     12 O12          2.2960     2.2970     0.5900 o          1 XEN      -0.644100
     13 N13          3.7820     1.0440    -0.5410 nt         1 XEN      -0.672000
     14 H13         -4.3890     2.0250    -1.2980 hc         1 XEN       0.034033
     15 H11         -4.9340     0.4180    -1.7700 hc         1 XEN       0.034033
     16 H12         -5.8810     1.3710    -0.6300 hc         1 XEN       0.034033
     17 H22         -4.0510     1.2230     1.0560 hc         1 XEN       0.038200
     18 H21         -4.5910    -0.3770     0.5970 hc         1 XEN       0.038200
     19 H32         -2.6730    -0.5940    -0.9760 hc         1 XEN       0.048200
     20 H31         -2.1410     1.0290    -0.5710 hc         1 XEN       0.048200
     21 H42         -1.8250     0.3540     1.8100 h1         1 XEN       0.053700
     22 H41         -2.3390    -1.2760     1.4260 h1         1 XEN       0.053700
     23 H61          0.1720     1.1690     1.0200 h4         1 XEN       0.160000
     24 H81          2.1060    -1.3280    -1.5300 hc         1 XEN       0.038200
     25 H91          1.3930    -3.3360    -0.3970 hc         1 XEN       0.050700
     26 H101        -0.8680    -2.7750     0.4830 h1         1 XEN       0.039200
     27 H132         4.3650     1.8500    -0.6940 hn         1 XEN       0.302000
     28 H131         3.9790     0.2390    -1.1090 hn         1 XEN       0.302000
     29 H1           3.1600    -1.5260    -0.1470 hc         1 XEN       0.038200
     30 H2           1.4690    -2.5670     1.1790 hc         1 XEN       0.050700
     31 H3          -0.5330    -1.9590    -1.0400 h1         1 XEN       0.039200
@<TRIPOS>BOND
     1     1     2 1   
     2     1    14 1   
     3     1    15 1   
     4     1    16 1   
     5     2     3 1   
     6     2    17 1   
     7     2    18 1   
     8     3     4 1   
     9     3    19 1   
    10     3    20 1   
    11     4     5 1   
    12     4    21 1   
    13     4    22 1   
    14     5     6 1   
    15     5    10 1   
    16     6     7 2   
    17     6    23 1   
    18     7     8 1   
    19     7    11 1   
    20     8     9 1   
    21     8    24 1   
    22     8    29 1   
    23     9    10 1   
    24     9    25 1   
    25     9    30 1   
    26    10    26 1   
    27    10    31 1   
    28    11    12 2   
    29    11    13 1   
    30    13    27 1   
    31    13    28 1   
@<TRIPOS>SUBSTRUCTURE
     1 XEN         1 TEMP              0 ****  ****    0 ROOT
