@<TRIPOS>MOLECULE
XEN
   31    31     1     0     0
SMALL
No Charge or Current Charge


@<TRIPOS>ATOM
      1 C1          -4.9760     1.2460    -0.8520 c3         1 XEN      -0.089100
      2 C2          -4.1780     0.4910     0.2290 c3         1 XEN      -0.073400
      3 C3          -2.7040     0.2520    -0.1630 c3         1 XEN      -0.110400
      4 C4          -1.9050    -0.5050     0.9190 c3         1 XEN       0.219800
      5 N5          -0.4980    -0.7530     0.5390 nh         1 XEN      -0.669400
      6 C6           0.4420     0.2770     0.4540 c2         1 XEN       0.116000
      7 C7           1.7330     0.0760     0.1010 ce         1 XEN      -0.352400
      8 C8           2.2320    -1.3300    -0.2880 c6         1 XEN      -0.007200
      9 C9           1.3140    -2.4280     0.2960 c6         1 XEN      -0.087400
     10 C10         -0.1640    -2.0980     0.0030 c6         1 XEN       0.214800
     11 C11          2.6760     1.2310     0.0100 c          1 XEN       0.634300
     12 O12          2.4450     2.3240     0.4960 o          1 XEN      -0.644100
     13 N13          3.7880     1.0460    -0.7270 nt         1 XEN      -0.605000
     14 H13         -4.5340     2.2310    -1.0430 hc         1 XEN       0.034033
     15 H11         -4.9850     0.6810    -1.7920 hc         1 XEN       0.034033
     16 H12         -6.0140     1.3920    -0.5300 hc         1 XEN       0.034033
     17 H22         -4.2180     1.0630     1.1650 hc         1 XEN       0.038200
     18 H21         -4.6650    -0.4730     0.4230 hc         1 XEN       0.038200
     19 H32         -2.6670    -0.3210    -1.0980 hc         1 XEN       0.048200
     20 H31         -2.2230     1.2180    -0.3600 hc         1 XEN       0.048200
     21 H42         -1.9350     0.0700     1.8550 h1         1 XEN       0.053700
     22 H41         -2.4140    -1.4590     1.1170 h1         1 XEN       0.053700
     23 H61          0.0690     1.2740     0.7130 h4         1 XEN       0.210000
     24 H81          2.2610    -1.4190    -1.3830 hc         1 XEN       0.038200
     25 H91          1.5740    -3.4070    -0.1270 hc         1 XEN       0.050700
     26 H101        -0.8140    -2.8720     0.4380 h1         1 XEN       0.039200
     27 H132         4.4380     1.8080    -0.8400 hn         1 XEN       0.302000
     28 H131         3.9590     0.1510    -1.1580 hn         1 XEN       0.302000
     29 H1           3.2570    -1.4950     0.0730 hc         1 XEN       0.038200
     30 H2           1.4640    -2.5000     1.3810 hc         1 XEN       0.050700
     31 H3          -0.3200    -2.1080    -1.0850 h1         1 XEN       0.039200
@<TRIPOS>BOND
     1     1     2 1   
     2     1    14 1   
     3     1    15 1   
     4     1    16 1   
     5     2     3 1   
     6     2    17 1   
     7     2    18 1   
     8     3     4 1   
     9     3    19 1   
    10     3    20 1   
    11     4     5 1   
    12     4    21 1   
    13     4    22 1   
    14     5     6 1   
    15     5    10 1   
    16     6     7 2   
    17     6    23 1   
    18     7     8 1   
    19     7    11 1   
    20     8     9 1   
    21     8    24 1   
    22     8    29 1   
    23     9    10 1   
    24     9    25 1   
    25     9    30 1   
    26    10    26 1   
    27    10    31 1   
    28    11    12 2   
    29    11    13 1   
    30    13    27 1   
    31    13    28 1   
@<TRIPOS>SUBSTRUCTURE
     1 XEN         1 TEMP              0 ****  ****    0 ROOT
