@<TRIPOS>MOLECULE
XEP
   12    11     1     0     0
SMALL
No Charge or Current Charge


@<TRIPOS>ATOM
      1 C1         113.5140    28.7040    -8.3130 c3         1 XEP      -0.079600
      2 C2         114.1860    27.9160    -7.1680 c3         1 XEP      -0.018500
      3 C3         114.0180    26.3890    -7.3360 c3         1 XEP      -0.079600
      4 N1         113.6130    28.3380    -5.8870 n2         1 XEP      -0.000900
      5 O1         114.4340    28.4580    -4.9910 o          1 XEP      -0.166300
      6 H1         113.6690    29.7820    -8.1820 hc         1 XEP       0.046533
      7 H2         113.9410    28.4170    -9.2810 hc         1 XEP       0.046533
      8 H3         112.4350    28.5120    -8.3430 hc         1 XEP       0.046533
      9 H4         115.2610    28.1420    -7.1950 h1         1 XEP       0.066700
     10 H5         114.5250    25.8520    -6.5260 hc         1 XEP       0.046533
     11 H6         112.9580    26.1070    -7.3250 hc         1 XEP       0.046533
     12 H7         114.4520    26.0560    -8.2860 hc         1 XEP       0.046533
@<TRIPOS>BOND
     1     1     2 1   
     2     1     6 1   
     3     1     7 1   
     4     1     8 1   
     5     2     3 1   
     6     2     4 1   
     7     2     9 1   
     8     3    10 1   
     9     3    11 1   
    10     3    12 1   
    11     4     5 2   
@<TRIPOS>SUBSTRUCTURE
     1 XEP         1 TEMP              0 ****  ****    0 ROOT
