@<TRIPOS>MOLECULE
XER
   14    15     1     0     0
SMALL
abcg2


@<TRIPOS>ATOM
      1 C4         111.7980    30.6170    30.3370 cc         1 XER       0.099000
      2 C7         109.6430    30.0770    28.9230 c          1 XER       0.735600
      3 C1         114.7650    31.5650    28.4920 cd         1 XER      -0.107000
      4 C2         113.4210    31.1730    28.7510 cd         1 XER      -0.243000
      5 C3         113.1330    31.0140    30.0890 cc         1 XER      -0.166000
      6 C5         111.0760    30.4750    29.1890 cd         1 XER      -0.187600
      7 S6         112.0390    30.8310    27.7890 ss         1 XER       0.284000
      8 O8         109.3480    30.0480    27.7130 o          1 XER      -0.692500
      9 O9         108.9330    29.8290    29.9080 o          1 XER      -0.692500
     10 CL         111.2450    30.3610    31.9390 cl         1 XER      -0.177000
     11 S10        114.4960    31.3400    31.0930 ss         1 XER       0.160000
     12 C11        115.4240    31.6800    29.6660 cc         1 XER       0.017000
     13 F12        116.6950    32.0180    29.8260 f          1 XER      -0.169000
     14 HC1        115.2030    31.7430    27.5210 ha         1 XER       0.137000
@<TRIPOS>BOND
     1     1     5 1   
     2     1     6 2   
     3     1    10 1   
     4     2     6 1   
     5     2     8 1   
     6     2     9 1   
     7     3     4 1   
     8     3    12 2   
     9     3    14 1   
    10     4     5 2   
    11     4     7 1   
    12     5    11 1   
    13     6     7 1   
    14    11    12 1   
    15    12    13 1   
@<TRIPOS>SUBSTRUCTURE
     1 XER         1 TEMP              0 ****  ****    0 ROOT
