@<TRIPOS>MOLECULE
XER
   14    15     1     0     0
SMALL
No Charge or Current Charge


@<TRIPOS>ATOM
      1 C4         111.7770    30.6100    30.2930 cc         1 XER       0.099000
      2 C7         109.6520    30.0810    28.9490 c          1 XER       0.735600
      3 C1         114.7840    31.5640    28.5250 cd         1 XER      -0.107000
      4 C2         113.4430    31.1700    28.7650 cd         1 XER      -0.243000
      5 C3         113.1140    31.0030    30.0570 cc         1 XER      -0.166000
      6 C5         111.0730    30.4770    29.1020 cd         1 XER      -0.187600
      7 S6         112.0920    30.8470    27.6780 ss         1 XER       0.284000
      8 O8         109.1990    30.0170    27.8150 o          1 XER      -0.692500
      9 O9         108.9750    29.8330    29.9360 o          1 XER      -0.692500
     10 Cl         111.2050    30.3550    31.9180 cl         1 XER      -0.177000
     11 S10        114.4640    31.3260    31.1350 ss         1 XER       0.160000
     12 C11        115.4690    31.6920    29.7150 cc         1 XER       0.017000
     13 F12        116.7580    32.0540    29.8000 f          1 XER      -0.169000
     14 HC1        115.2160    31.7430    27.5460 ha         1 XER       0.137000
@<TRIPOS>BOND
     1     1     5 1   
     2     1     6 2   
     3     1    10 1   
     4     2     6 1   
     5     2     8 1   
     6     2     9 1   
     7     3     4 1   
     8     3    12 2   
     9     3    14 1   
    10     4     5 2   
    11     4     7 1   
    12     5    11 1   
    13     6     7 1   
    14    11    12 1   
    15    12    13 1   
@<TRIPOS>SUBSTRUCTURE
     1 XER         1 TEMP              0 ****  ****    0 ROOT
