@<TRIPOS>MOLECULE
XES
   39    41     1     0     0
SMALL
No Charge or Current Charge


@<TRIPOS>ATOM
      1 C02          1.6910   -33.6690    21.1610 c          1 XES       0.625700
      2 C03          0.6650   -34.6570    21.8010 c5         1 XES      -0.150700
      3 C04          1.3630   -36.0360    22.0690 c5         1 XES      -0.076400
      4 C05          0.7580   -36.9770    20.9980 c5         1 XES      -0.081400
      5 C06         -0.7100   -36.4930    20.9940 c5         1 XES      -0.075400
      6 C07         -0.5030   -34.9680    20.7920 c5         1 XES      -0.000700
      7 C08         -1.7880   -34.1130    21.0070 c3         1 XES      -0.302700
      8 C09         -2.9180   -34.4610    20.0460 c          1 XES       0.738500
      9 C12         -1.5550   -32.6120    20.8910 c          1 XES       0.738500
     10 C15          2.0520   -32.5390    22.1000 ca         1 XES      -0.059600
     11 C16          2.1930   -31.2360    21.5850 ca         1 XES      -0.069000
     12 C17          2.5500   -30.1650    22.4220 ca         1 XES      -0.095000
     13 C18          2.3040   -32.7560    23.4730 ca         1 XES      -0.069000
     14 C19          2.6610   -31.6850    24.3110 ca         1 XES      -0.095000
     15 C20          2.7860   -30.3750    23.7990 ca         1 XES      -0.183500
     16 C21          3.1620   -29.2620    24.6860 cc         1 XES       0.499000
     17 N22          3.3100   -27.9540    24.3240 na         1 XES      -0.216700
     18 N23          3.6650   -27.1980    25.3950 nc         1 XES      -0.243800
     19 N24          3.7280   -28.0460    26.3840 nd         1 XES      -0.065000
     20 N25          3.4230   -29.3250    25.9780 nd         1 XES      -0.412000
     21 O01          2.2010   -33.7810    20.0500 o          1 XES      -0.516100
     22 O10         -3.9940   -34.7850    20.5280 o          1 XES      -0.766750
     23 O11         -2.7070   -34.4720    18.8430 o          1 XES      -0.766750
     24 O13         -0.9750   -32.1680    19.9120 o          1 XES      -0.766750
     25 O14         -1.8850   -31.9120    21.8360 o          1 XES      -0.766750
     26 H1           0.2770   -34.2490    22.7400 hc         1 XES       0.075700
     27 H2           1.1250   -36.3970    23.0760 hc         1 XES       0.010200
     28 H3           2.4570   -35.9870    22.0040 hc         1 XES       0.010200
     29 H4           0.8510   -38.0340    21.2720 hc         1 XES       0.015700
     30 H5           1.2360   -36.8450    20.0200 hc         1 XES       0.015700
     31 H6          -1.2190   -36.7220    21.9380 hc         1 XES       0.045200
     32 H7          -1.2930   -36.9480    20.1850 hc         1 XES       0.045200
     33 H8          -0.1790   -34.7930    19.7570 hc         1 XES       0.077700
     34 H9          -2.1740   -34.2930    22.0200 hc         1 XES       0.014700
     35 H10          2.0170   -31.0500    20.5270 ha         1 XES       0.136500
     36 H11          2.6410   -29.1730    21.9870 ha         1 XES       0.103000
     37 H12          2.2400   -33.7550    23.8980 ha         1 XES       0.136500
     38 H13          2.8470   -31.8840    25.3650 ha         1 XES       0.103000
     39 H14          3.1810   -27.5650    23.4000 hn         1 XES       0.385000
@<TRIPOS>BOND
     1     1     2 1   
     2     1    10 1   
     3     1    21 2   
     4     2     3 1   
     5     2     6 1   
     6     2    26 1   
     7     3     4 1   
     8     3    27 1   
     9     3    28 1   
    10     4     5 1   
    11     4    29 1   
    12     4    30 1   
    13     5     6 1   
    14     5    31 1   
    15     5    32 1   
    16     6     7 1   
    17     6    33 1   
    18     7     8 1   
    19     7     9 1   
    20     7    34 1   
    21     8    22 1   
    22     8    23 1   
    23     9    24 1   
    24     9    25 1   
    25    10    11 ar  
    26    10    13 ar  
    27    11    12 ar  
    28    11    35 1   
    29    12    15 ar  
    30    12    36 1   
    31    13    14 ar  
    32    13    37 1   
    33    14    15 ar  
    34    14    38 1   
    35    15    16 1   
    36    16    17 1   
    37    16    20 2   
    38    17    18 1   
    39    17    39 1   
    40    18    19 2   
    41    19    20 1   
@<TRIPOS>SUBSTRUCTURE
     1 XES         1 TEMP              0 ****  ****    0 ROOT
