@<TRIPOS>MOLECULE
XES
   39    41     1     0     0
SMALL
bcc


@<TRIPOS>ATOM
      1 C02          1.2340   -33.2790    21.1460 c          1 XES       0.625700
      2 C03          0.5060   -34.4830    21.6800 c5         1 XES      -0.150700
      3 C04          1.5040   -35.6450    21.9700 c5         1 XES      -0.076400
      4 C05          0.8960   -36.8830    21.2930 c5         1 XES      -0.081400
      5 C06         -0.5770   -36.5350    21.1150 c5         1 XES      -0.075400
      6 C07         -0.5510   -35.0590    20.7230 c5         1 XES      -0.000700
      7 C08         -1.9020   -34.3490    20.8100 c3         1 XES      -0.302700
      8 C09         -2.9830   -34.9350    19.8860 c          1 XES       0.949100
      9 C12         -1.7240   -32.8370    20.5230 c          1 XES       0.949100
     10 C15          1.7800   -32.2770    22.1170 ca         1 XES      -0.059600
     11 C16          2.2480   -31.0570    21.6320 ca         1 XES      -0.087000
     12 C17          2.7710   -30.1080    22.4890 ca         1 XES      -0.113000
     13 C18          1.8660   -32.5310    23.4830 ca         1 XES      -0.087000
     14 C19          2.4020   -31.5910    24.3460 ca         1 XES      -0.113000
     15 C20          2.8510   -30.3660    23.8570 ca         1 XES      -0.183500
     16 C21          3.3980   -29.3870    24.7880 cc         1 XES       0.499000
     17 N22          3.6200   -28.0910    24.5490 na         1 XES      -0.166400
     18 N23          4.1200   -27.5290    25.6340 nc         1 XES      -0.243800
     19 N24          4.2020   -28.4510    26.5110 nd         1 XES      -0.065000
     20 N25          3.7670   -29.6120    26.0300 nd         1 XES      -0.412000
     21 O01          1.4610   -33.1350    19.9620 o          1 XES      -0.516100
     22 O10         -4.1660   -34.7230    20.2350 o          1 XES      -0.872050
     23 O11         -2.6230   -35.5560    18.8640 o          1 XES      -0.872050
     24 O13         -1.9820   -32.4370    19.3700 o          1 XES      -0.872050
     25 O14         -1.2970   -32.1330    21.4660 o          1 XES      -0.872050
     26 H1           0.0080   -34.2080    22.6110 hc         1 XES       0.075700
     27 H2           1.5940   -35.7910    23.0480 hc         1 XES       0.010200
     28 H3           2.5110   -35.4410    21.6020 hc         1 XES       0.010200
     29 H4           1.0610   -37.7940    21.8700 hc         1 XES       0.015700
     30 H5           1.3550   -37.0370    20.3130 hc         1 XES       0.015700
     31 H6          -1.1130   -36.6550    22.0640 hc         1 XES       0.045200
     32 H7          -1.0810   -37.1540    20.3730 hc         1 XES       0.045200
     33 H8          -0.1790   -34.9900    19.6960 hc         1 XES       0.077700
     34 H9          -2.2470   -34.4490    21.8480 hc         1 XES       0.014700
     35 H10          2.2000   -30.8450    20.5730 ha         1 XES       0.154500
     36 H11          3.1280   -29.1730    22.0750 ha         1 XES       0.121000
     37 H12          1.5210   -33.4700    23.8950 ha         1 XES       0.154500
     38 H13          2.4600   -31.8060    25.4050 ha         1 XES       0.121000
     39 H14          3.4430   -27.5370    23.7220 hn         1 XES       0.334700
@<TRIPOS>BOND
     1     1     2 1   
     2     1    10 1   
     3     1    21 2   
     4     2     3 1   
     5     2     6 1   
     6     2    26 1   
     7     3     4 1   
     8     3    27 1   
     9     3    28 1   
    10     4     5 1   
    11     4    29 1   
    12     4    30 1   
    13     5     6 1   
    14     5    31 1   
    15     5    32 1   
    16     6     7 1   
    17     6    33 1   
    18     7     8 1   
    19     7     9 1   
    20     7    34 1   
    21     8    22 1   
    22     8    23 1   
    23     9    24 1   
    24     9    25 1   
    25    10    11 ar  
    26    10    13 ar  
    27    11    12 ar  
    28    11    35 1   
    29    12    15 ar  
    30    12    36 1   
    31    13    14 ar  
    32    13    37 1   
    33    14    15 ar  
    34    14    38 1   
    35    15    16 1   
    36    16    17 1   
    37    16    20 2   
    38    17    18 1   
    39    17    39 1   
    40    18    19 2   
    41    19    20 1   
@<TRIPOS>SUBSTRUCTURE
     1 XES         1 TEMP              0 ****  ****    0 ROOT
