@<TRIPOS>MOLECULE
XEV
   28    29     1     0     0
SMALL
No Charge or Current Charge


@<TRIPOS>ATOM
      1 C            4.0760    -0.6210    -0.6850 c          1 XEV       0.713600
      2 O            5.1800    -0.0940    -0.7090 o          1 XEV      -0.720000
      3 C1           2.8790     0.2150    -0.2600 ca         1 XEV      -0.140600
      4 C10         -5.7740     0.3290    -0.5100 c3         1 XEV       0.154900
      5 C11         -3.5210    -1.3470     0.2340 ca         1 XEV      -0.217000
      6 C12         -2.4010    -2.1180     0.5840 ca         1 XEV      -0.083000
      7 C13         -1.1170    -1.5470     0.5590 ca         1 XEV      -0.135000
      8 C2           1.5790    -0.3450    -0.2300 ca         1 XEV      -0.065000
      9 C3           0.4460     0.4150     0.1600 cp         1 XEV      -0.095000
     10 C4           0.6490     1.7690     0.5220 ca         1 XEV      -0.119000
     11 C5           1.9310     2.3380     0.4980 ca         1 XEV      -0.152000
     12 C6           3.0390     1.5690     0.1110 ca         1 XEV      -0.075000
     13 C7          -0.9230    -0.1940     0.1860 cp         1 XEV       0.040000
     14 C8          -2.0690     0.5640    -0.1620 ca         1 XEV      -0.147000
     15 C9          -3.3560     0.0030    -0.1410 ca         1 XEV       0.125100
     16 O1           3.8960    -1.7920    -0.9870 o          1 XEV      -0.720000
     17 O2          -4.4170     0.8090    -0.4970 os         1 XEV      -0.349100
     18 H7          -6.4560     1.1290    -0.8220 h1         1 XEV       0.031367
     19 H5          -5.8850    -0.5060    -1.2130 h1         1 XEV       0.031367
     20 H6          -6.0780    -0.0070     0.4890 h1         1 XEV       0.031367
     21 H8          -4.5020    -1.8120     0.2610 ha         1 XEV       0.101000
     22 H9          -2.5260    -3.1580     0.8770 ha         1 XEV       0.100000
     23 H10         -0.2660    -2.1580     0.8470 ha         1 XEV       0.129000
     24 H            1.4400    -1.3810    -0.5270 ha         1 XEV       0.131000
     25 H1          -0.1920     2.3810     0.8390 ha         1 XEV       0.088000
     26 H2           2.0670     3.3790     0.7840 ha         1 XEV       0.087000
     27 H3           4.0240     2.0310     0.1000 ha         1 XEV       0.127000
     28 H4          -1.9580     1.6010    -0.4650 ha         1 XEV       0.126000
@<TRIPOS>BOND
     1     1     2 1   
     2     1     3 1   
     3     1    16 1   
     4     3     8 ar  
     5     3    12 ar  
     6     4    17 1   
     7     4    18 1   
     8     4    19 1   
     9     4    20 1   
    10     5     6 ar  
    11     5    15 ar  
    12     5    21 1   
    13     6     7 ar  
    14     6    22 1   
    15     7    13 ar  
    16     7    23 1   
    17     8     9 ar  
    18     8    24 1   
    19     9    10 ar  
    20     9    13 1   
    21    10    11 ar  
    22    10    25 1   
    23    11    12 ar  
    24    11    26 1   
    25    12    27 1   
    26    13    14 ar  
    27    14    15 ar  
    28    14    28 1   
    29    15    17 1   
@<TRIPOS>SUBSTRUCTURE
     1 XEV         1 TEMP              0 ****  ****    0 ROOT
