@<TRIPOS>MOLECULE
XEV
   28    29     1     0     0
SMALL
bcc


@<TRIPOS>ATOM
      1 C            3.9810    -0.6120    -0.7700 c          1 XEV       0.924200
      2 O            5.0960    -0.0590    -0.7540 o          1 XEV      -0.825300
      3 C1           2.7990     0.2220    -0.2870 ca         1 XEV      -0.140600
      4 C10         -5.6430     0.2950    -0.5560 c3         1 XEV       0.131700
      5 C11         -3.4940    -1.3190     0.2660 ca         1 XEV      -0.235000
      6 C12         -2.3790    -2.0580     0.6460 ca         1 XEV      -0.101000
      7 C13         -1.1090    -1.5100     0.6170 ca         1 XEV      -0.153000
      8 C2           1.5190    -0.3220    -0.2560 ca         1 XEV      -0.083000
      9 C3           0.4180     0.4180     0.1720 cp         1 XEV      -0.095000
     10 C4           0.6180     1.7390     0.5770 ca         1 XEV      -0.137000
     11 C5           1.8890     2.2930     0.5540 ca         1 XEV      -0.170000
     12 C6           2.9740     1.5400     0.1250 ca         1 XEV      -0.093000
     13 C7          -0.9310    -0.1870     0.2010 cp         1 XEV       0.040000
     14 C8          -2.0430     0.5540    -0.1810 ca         1 XEV      -0.165000
     15 C9          -3.3220    -0.0020    -0.1530 ca         1 XEV       0.125100
     16 O1           3.7290    -1.7750    -1.1390 o          1 XEV      -0.825300
     17 O2          -4.3240     0.8040    -0.5540 os         1 XEV      -0.325900
     18 H7          -6.2830     1.0960    -0.9170 h1         1 XEV       0.031367
     19 H5          -5.7480    -0.5660    -1.2230 h1         1 XEV       0.031367
     20 H6          -5.9730     0.0050     0.4450 h1         1 XEV       0.031367
     21 H8          -4.4710    -1.7800     0.3060 ha         1 XEV       0.119000
     22 H9          -2.5160    -3.0790     0.9780 ha         1 XEV       0.118000
     23 H10         -0.2600    -2.1000     0.9380 ha         1 XEV       0.147000
     24 H            1.3810    -1.3430    -0.5900 ha         1 XEV       0.149000
     25 H1          -0.2170     2.3300     0.9320 ha         1 XEV       0.106000
     26 H2           2.0350     3.3150     0.8800 ha         1 XEV       0.105000
     27 H3           3.9640     1.9760     0.1130 ha         1 XEV       0.145000
     28 H4          -1.9260     1.5750    -0.5270 ha         1 XEV       0.144000
@<TRIPOS>BOND
     1     1     2 1   
     2     1     3 1   
     3     1    16 1   
     4     3     8 ar  
     5     3    12 ar  
     6     4    17 1   
     7     4    18 1   
     8     4    19 1   
     9     4    20 1   
    10     5     6 ar  
    11     5    15 ar  
    12     5    21 1   
    13     6     7 ar  
    14     6    22 1   
    15     7    13 ar  
    16     7    23 1   
    17     8     9 ar  
    18     8    24 1   
    19     9    10 ar  
    20     9    13 1   
    21    10    11 ar  
    22    10    25 1   
    23    11    12 ar  
    24    11    26 1   
    25    12    27 1   
    26    13    14 ar  
    27    14    15 ar  
    28    14    28 1   
    29    15    17 1   
@<TRIPOS>SUBSTRUCTURE
     1 XEV         1 TEMP              0 ****  ****    0 ROOT
