@<TRIPOS>MOLECULE
XEW
   33    33     1     0     0
SMALL
abcg2


@<TRIPOS>ATOM
      1 N           21.2250   -11.6440    35.7240 nu         1 XEW      -0.945200
      2 C           21.7960   -14.5760    32.7970 ca         1 XEW       0.086000
      3 CL          22.0630   -15.7840    31.5510 cl         1 XEW      -0.220000
      4 C10         21.0290   -14.8890    33.9070 ca         1 XEW      -0.069500
      5 C9          20.8090   -13.9370    34.8950 ca         1 XEW      -0.154500
      6 C3          21.3650   -12.6580    34.7770 ca         1 XEW       0.334000
      7 C2          22.1380   -12.3640    33.6430 ca         1 XEW      -0.154500
      8 C1          22.3550   -13.3120    32.6580 ca         1 XEW      -0.069500
      9 C4          20.4910   -11.6280    36.8980 c2         1 XEW       0.846100
     10 N4          19.6500   -12.5370    37.2150 n2         1 XEW      -0.848100
     11 N1          20.7980   -10.4900    37.6500 nu         1 XEW      -0.938400
     12 C5          20.1980   -10.0760    38.8360 c2         1 XEW       0.850100
     13 N3          19.3050   -10.8030    39.4150 n2         1 XEW      -0.903100
     14 N2          20.7060    -8.8850    39.2810 nu         1 XEW      -0.960400
     15 C6          20.1440    -8.1490    40.4130 c3         1 XEW       0.228500
     16 C8          21.2000    -7.1820    40.9390 c3         1 XEW      -0.111600
     17 C7          18.8490    -7.4250    40.0390 c3         1 XEW      -0.111600
     18 H1          21.7070   -10.7910    35.4900 hn         1 XEW       0.484000
     19 H2          20.5950   -15.8750    34.0080 ha         1 XEW       0.128000
     20 H3          20.2050   -14.1750    35.7540 ha         1 XEW       0.135000
     21 H4          22.5780   -11.3790    33.5380 ha         1 XEW       0.135000
     22 H5          22.9540   -13.0680    31.7920 ha         1 XEW       0.128000
     23 H6          19.2630   -12.3010    38.1280 hn         1 XEW       0.448400
     24 H7          21.5990    -9.9530    37.3550 hn         1 XEW       0.482000
     25 H8          18.9340   -10.3450    40.2390 hn         1 XEW       0.395400
     26 H9          21.1720    -8.3110    38.5930 hn         1 XEW       0.468000
     27 H10         19.9330    -8.8790    41.1980 h1         1 XEW       0.063700
     28 H11         20.8100    -6.6320    41.7960 hc         1 XEW       0.045867
     29 H12         22.1000    -7.7160    41.2470 hc         1 XEW       0.045867
     30 H13         21.4730    -6.4580    40.1670 hc         1 XEW       0.045867
     31 H14         18.4210    -6.9330    40.9150 hc         1 XEW       0.045867
     32 H15         19.0490    -6.6650    39.2800 hc         1 XEW       0.045867
     33 H16         18.1080    -8.1220    39.6420 hc         1 XEW       0.045867
@<TRIPOS>BOND
     1     1     6 1   
     2     1     9 1   
     3     1    18 1   
     4     2     3 1   
     5     2     4 ar  
     6     2     8 ar  
     7     4     5 ar  
     8     4    19 1   
     9     5     6 ar  
    10     5    20 1   
    11     6     7 ar  
    12     7     8 ar  
    13     7    21 1   
    14     8    22 1   
    15     9    10 2   
    16     9    11 1   
    17    10    23 1   
    18    11    12 1   
    19    11    24 1   
    20    12    13 2   
    21    12    14 1   
    22    13    25 1   
    23    14    15 1   
    24    14    26 1   
    25    15    16 1   
    26    15    17 1   
    27    15    27 1   
    28    16    28 1   
    29    16    29 1   
    30    16    30 1   
    31    17    31 1   
    32    17    32 1   
    33    17    33 1   
@<TRIPOS>SUBSTRUCTURE
     1 XEW         1 TEMP              0 ****  ****    0 ROOT
