@<TRIPOS>MOLECULE
XEW
   33    33     1     0     0
SMALL
No Charge or Current Charge


@<TRIPOS>ATOM
      1 N           20.8810   -11.2440    35.9170 nu         1 XEW      -0.945200
      2 C           22.7100   -14.2940    33.6720 ca         1 XEW       0.086000
      3 Cl          23.4800   -15.5640    32.7300 cl         1 XEW      -0.220000
      4 C10         22.4440   -14.4950    35.0360 ca         1 XEW      -0.069500
      5 C9          21.8290   -13.4760    35.7880 ca         1 XEW      -0.154500
      6 C3          21.4730   -12.2600    35.1780 ca         1 XEW       0.334000
      7 C2          21.7490   -12.0610    33.8150 ca         1 XEW      -0.154500
      8 C1          22.3650   -13.0770    33.0590 ca         1 XEW      -0.069500
      9 C4          19.8380   -11.3120    36.7350 c2         1 XEW       0.846100
     10 N4          18.9520   -12.1830    36.6360 n2         1 XEW      -0.848100
     11 N1          19.5970   -10.1310    37.2410 nu         1 XEW      -0.938400
     12 C5          18.9750    -9.9330    38.3630 c2         1 XEW       0.850100
     13 N3          17.7440   -10.1120    38.4100 n2         1 XEW      -0.903100
     14 N2          19.4470    -8.7810    38.7880 nu         1 XEW      -0.960400
     15 C6          20.1180    -8.6400    40.0810 c3         1 XEW       0.228500
     16 C8          21.5420    -9.2220    39.9980 c3         1 XEW      -0.111600
     17 C7          20.1210    -7.1550    40.4840 c3         1 XEW      -0.111600
     18 H1          20.8640   -10.3620    35.4250 hn         1 XEW       0.484000
     19 H2          22.7160   -15.4350    35.5100 ha         1 XEW       0.128000
     20 H3          21.6280   -13.6310    36.8440 ha         1 XEW       0.135000
     21 H4          21.4850   -11.1220    33.3360 ha         1 XEW       0.135000
     22 H5          22.5740   -12.9220    32.0030 ha         1 XEW       0.128000
     23 H6          18.1800   -11.7690    37.1810 hn         1 XEW       0.448400
     24 H7          20.4210    -9.5680    37.2910 hn         1 XEW       0.482000
     25 H8          17.4100    -9.5330    39.1860 hn         1 XEW       0.395400
     26 H9          18.8520    -8.0080    38.5130 hn         1 XEW       0.468000
     27 H10         19.5600    -9.1960    40.8500 h1         1 XEW       0.063700
     28 H11         22.0550    -9.1160    40.9610 hc         1 XEW       0.045867
     29 H12         21.5140   -10.2900    39.7480 hc         1 XEW       0.045867
     30 H13         22.1340    -8.7030    39.2350 hc         1 XEW       0.045867
     31 H14         20.6060    -7.0240    41.4580 hc         1 XEW       0.045867
     32 H15         20.6630    -6.5500    39.7470 hc         1 XEW       0.045867
     33 H16         19.0960    -6.7720    40.5630 hc         1 XEW       0.045867
@<TRIPOS>BOND
     1     1     6 1   
     2     1     9 1   
     3     1    18 1   
     4     2     3 1   
     5     2     4 ar  
     6     2     8 ar  
     7     4     5 ar  
     8     4    19 1   
     9     5     6 ar  
    10     5    20 1   
    11     6     7 ar  
    12     7     8 ar  
    13     7    21 1   
    14     8    22 1   
    15     9    10 2   
    16     9    11 1   
    17    10    23 1   
    18    11    12 1   
    19    11    24 1   
    20    12    13 2   
    21    12    14 1   
    22    13    25 1   
    23    14    15 1   
    24    14    26 1   
    25    15    16 1   
    26    15    17 1   
    27    15    27 1   
    28    16    28 1   
    29    16    29 1   
    30    16    30 1   
    31    17    31 1   
    32    17    32 1   
    33    17    33 1   
@<TRIPOS>SUBSTRUCTURE
     1 XEW         1 TEMP              0 ****  ****    0 ROOT
