@<TRIPOS>MOLECULE
XEY
   42    45     1     0     0
SMALL
No Charge or Current Charge


@<TRIPOS>ATOM
      1 C1           6.1550    -0.4410    25.8850 ca         1 XEY       0.123000
      2 C2           6.7780    -0.0140    24.7000 ca         1 XEY      -0.085500
      3 C5           8.2950    -0.4410    22.7640 cc         1 XEY      -0.170400
      4 C6           7.8730    -2.1740    24.5010 ca         1 XEY      -0.085500
      5 C11          9.0630     0.7000    22.8830 cd         1 XEY      -0.061000
      6 C12          8.6630    -1.1850    19.0470 ca         1 XEY      -0.046400
      7 C13         10.5340     2.4940    21.8430 ca         1 XEY       0.012200
      8 C14          8.7430    -2.5810    18.8450 ca         1 XEY      -0.044000
      9 C15          8.7010    -3.0860    17.5350 ca         1 XEY      -0.158000
     10 C16          8.6130    -2.1940    16.4570 ca         1 XEY       0.346900
     11 C17          8.6280    -0.3690    17.8860 ca         1 XEY       0.351900
     12 C10          9.7480     1.2320    21.7300 cd         1 XEY      -0.163200
     13 C18         10.6140     3.4900    20.8220 ca         1 XEY      -0.016000
     14 C19         11.4040     4.6420    21.0200 ca         1 XEY      -0.069000
     15 C20         12.1150     4.8300    22.2130 ca         1 XEY      -0.112000
     16 C21         12.0320     3.8690    23.2280 ca         1 XEY      -0.085000
     17 C22         11.2480     2.7200    23.0450 ca         1 XEY      -0.108000
     18 C23          9.8420     3.4340    19.6090 cg         1 XEY       0.321000
     19 C3           6.3890    -1.7320    26.3800 ca         1 XEY      -0.094000
     20 C4           7.6440    -0.8780    24.0000 ca         1 XEY      -0.013800
     21 C7           7.2490    -2.5980    25.6860 ca         1 XEY       0.123000
     22 C8           8.1170    -1.1620    21.4860 c          1 XEY       0.564200
     23 C9           9.5670     0.5600    20.5290 cc         1 XEY       0.009600
     24 N1           8.8140    -0.6170    20.3790 n          1 XEY      -0.186200
     25 N2           8.5850    -0.8530    16.6200 nb         1 XEY      -0.653000
     26 N3           9.2240     3.3990    18.6190 n1         1 XEY      -0.452000
     27 O1           7.3880    -2.1430    21.3920 o          1 XEY      -0.522000
     28 Cl1          5.0760     0.6470    26.7480 cl         1 XEY      -0.192500
     29 Cl2          7.5450    -4.2180    26.3020 cl         1 XEY      -0.192500
     30 H1           6.5810     0.9870    24.3230 ha         1 XEY       0.138000
     31 H2           8.5380    -2.8530    23.9740 ha         1 XEY       0.138000
     32 H3           9.1340     1.2020    23.8450 ha         1 XEY       0.195000
     33 H4           8.8550    -3.2680    19.6800 ha         1 XEY       0.134000
     34 H5           8.7480    -4.1550    17.3510 ha         1 XEY       0.131000
     35 H6           8.5810    -2.5610    15.4310 h4         1 XEY       0.025100
     36 H7           8.5980     0.7160    17.9680 h4         1 XEY       0.037100
     37 H8          11.4580     5.4080    20.2470 ha         1 XEY       0.129000
     38 H9          12.7200     5.7230    22.3540 ha         1 XEY       0.124000
     39 H10         12.5820     4.0100    24.1560 ha         1 XEY       0.121000
     40 H11         11.2340     1.9790    23.8400 ha         1 XEY       0.124000
     41 H12          5.9070    -2.0610    27.2960 ha         1 XEY       0.145000
     42 H13         10.0780     0.8290    19.6130 h4         1 XEY       0.216000
@<TRIPOS>BOND
     1     1     2 ar  
     2     1    19 ar  
     3     1    28 1   
     4     2    20 ar  
     5     2    30 1   
     6     3     5 2   
     7     3    20 1   
     8     3    22 1   
     9     4    20 ar  
    10     4    21 ar  
    11     4    31 1   
    12     5    12 1   
    13     5    32 1   
    14     6     8 ar  
    15     6    11 ar  
    16     6    24 1   
    17     7    12 1   
    18     7    13 ar  
    19     7    17 ar  
    20     8     9 ar  
    21     8    33 1   
    22     9    10 ar  
    23     9    34 1   
    24    10    25 ar  
    25    10    35 1   
    26    11    25 ar  
    27    11    36 1   
    28    12    23 2   
    29    13    14 ar  
    30    13    18 1   
    31    14    15 ar  
    32    14    37 1   
    33    15    16 ar  
    34    15    38 1   
    35    16    17 ar  
    36    16    39 1   
    37    17    40 1   
    38    18    26 3   
    39    19    21 ar  
    40    19    41 1   
    41    21    29 1   
    42    22    24 1   
    43    22    27 2   
    44    23    24 1   
    45    23    42 1   
@<TRIPOS>SUBSTRUCTURE
     1 XEY         1 TEMP              0 ****  ****    0 ROOT
