@<TRIPOS>MOLECULE
XEY
   42    45     1     0     0
SMALL
bcc


@<TRIPOS>ATOM
      1 C1           6.1240    -0.3390    25.8040 ca         1 XEY       0.031400
      2 C2           6.8140     0.0770    24.6780 ca         1 XEY      -0.103500
      3 C5           8.2980    -0.3860    22.7540 cc         1 XEY      -0.170400
      4 C6           7.5250    -2.1920    24.3040 ca         1 XEY      -0.103500
      5 C11          9.0800     0.7260    22.8350 cd         1 XEY      -0.011000
      6 C12          8.7950    -1.1850    19.1680 ca         1 XEY      -0.111700
      7 C13         10.6330     2.4360    21.8380 ca         1 XEY       0.012200
      8 C14          9.3650    -2.4250    18.9270 ca         1 XEY      -0.062000
      9 C15          9.2330    -2.9610    17.6580 ca         1 XEY      -0.241300
     10 C16          8.5440    -2.2340    16.6960 ca         1 XEY       0.412200
     11 C17          8.1230    -0.5340    18.1460 ca         1 XEY       0.417200
     12 C10          9.7900     1.2340    21.7190 cd         1 XEY      -0.163200
     13 C18         10.5060     3.5210    20.9580 ca         1 XEY      -0.016000
     14 C19         11.3150     4.6510    21.0850 ca         1 XEY      -0.087000
     15 C20         12.2500     4.7160    22.1020 ca         1 XEY      -0.130000
     16 C21         12.3720     3.6570    22.9910 ca         1 XEY      -0.103000
     17 C22         11.5730     2.5320    22.8590 ca         1 XEY      -0.126000
     18 C23          9.5060     3.5140    19.9380 cg         1 XEY       0.231800
     19 C3           6.1120    -1.6650    26.2020 ca         1 XEY      -0.112000
     20 C4           7.5270    -0.8510    23.9220 ca         1 XEY      -0.012800
     21 C7           6.8240    -2.5740    25.4340 ca         1 XEY       0.031400
     22 C8           8.1680    -1.1020    21.5000 c          1 XEY       0.706700
     23 C9           9.6810     0.5510    20.5500 cc         1 XEY       0.059600
     24 N1           8.9060    -0.5570    20.4440 n          1 XEY      -0.253200
     25 N2           8.0020    -1.0460    16.9280 nb         1 XEY      -0.653000
     26 N3           8.6920     3.5290    19.1220 n1         1 XEY      -0.362800
     27 O1           7.4770    -2.0900    21.3140 o          1 XEY      -0.597500
     28 CL1          5.2410     0.8250    26.7290 cl         1 XEY      -0.100900
     29 CL2          6.8340    -4.2370    25.9120 cl         1 XEY      -0.100900
     30 H1           6.7870     1.1170    24.3810 ha         1 XEY       0.156000
     31 H2           8.0810    -2.9280    23.7410 ha         1 XEY       0.156000
     32 H3           9.1620     1.2480    23.7820 ha         1 XEY       0.145000
     33 H4           9.9030    -2.9500    19.7050 ha         1 XEY       0.152000
     34 H5           9.6600    -3.9230    17.4130 ha         1 XEY       0.149000
     35 H6           8.4280    -2.6310    15.6940 h4         1 XEY       0.025100
     36 H7           7.6720     0.4370    18.3250 h4         1 XEY       0.037100
     37 H8          11.1970     5.4750    20.3940 ha         1 XEY       0.147000
     38 H9          12.8760     5.5920    22.2030 ha         1 XEY       0.142000
     39 H10         13.1000     3.7030    23.7900 ha         1 XEY       0.139000
     40 H11         11.6930     1.7070    23.5500 ha         1 XEY       0.142000
     41 H12          5.5660    -1.9810    27.0800 ha         1 XEY       0.163000
     42 H13         10.2240     0.8290    19.6560 h4         1 XEY       0.166000
@<TRIPOS>BOND
     1     1     2 ar  
     2     1    19 ar  
     3     1    28 1   
     4     2    20 ar  
     5     2    30 1   
     6     3     5 2   
     7     3    20 1   
     8     3    22 1   
     9     4    20 ar  
    10     4    21 ar  
    11     4    31 1   
    12     5    12 1   
    13     5    32 1   
    14     6     8 ar  
    15     6    11 ar  
    16     6    24 1   
    17     7    12 1   
    18     7    13 ar  
    19     7    17 ar  
    20     8     9 ar  
    21     8    33 1   
    22     9    10 ar  
    23     9    34 1   
    24    10    25 ar  
    25    10    35 1   
    26    11    25 ar  
    27    11    36 1   
    28    12    23 2   
    29    13    14 ar  
    30    13    18 1   
    31    14    15 ar  
    32    14    37 1   
    33    15    16 ar  
    34    15    38 1   
    35    16    17 ar  
    36    16    39 1   
    37    17    40 1   
    38    18    26 3   
    39    19    21 ar  
    40    19    41 1   
    41    21    29 1   
    42    22    24 1   
    43    22    27 2   
    44    23    24 1   
    45    23    42 1   
@<TRIPOS>SUBSTRUCTURE
     1 XEY         1 TEMP              0 ****  ****    0 ROOT
