@<TRIPOS>MOLECULE
XEZ
   28    31     1     0     0
SMALL
abcg2


@<TRIPOS>ATOM
      1 CAC         -2.9320    -1.7450    -0.2240 cc         1 XEZ       0.254900
      2 NAH         -4.1860    -2.1480    -0.2550 nd         1 XEZ      -0.520800
      3 NAM         -4.9050    -1.0370    -0.1400 na         1 XEZ      -0.003200
      4 CAF         -4.1600     0.0700    -0.0370 cd         1 XEZ      -0.115000
      5 CAN         -2.8420    -0.3430    -0.0870 cc         1 XEZ      -0.271500
      6 CAP         -1.6670     0.5130    -0.0090 cc         1 XEZ       0.408500
      7 CAG         -0.4050    -0.0020    -0.0320 cd         1 XEZ      -0.158000
      8 NAS          0.6510     0.8600     0.0450 na         1 XEZ       0.168100
      9 NAI         -1.9050     1.8550     0.0870 nc         1 XEZ      -0.670000
     10 CAE         -0.8940     2.6690     0.1410 cd         1 XEZ       0.405900
     11 CAR          0.4410     2.2240     0.1140 cd         1 XEZ      -0.153000
     12 NAJ          1.5840     2.8850     0.1420 nc         1 XEZ      -0.266600
     13 CAD          2.5370     1.9400     0.0920 cc         1 XEZ      -0.004400
     14 CAQ          2.0020     0.6640     0.0360 cd         1 XEZ      -0.215900
     15 CAO          2.6600    -0.6250    -0.0150 cd         1 XEZ       0.330800
     16 CAB          2.2790    -1.8530     0.5670 cd         1 XEZ      -0.224000
     17 CAA          3.3040    -2.7120     0.2510 cc         1 XEZ      -0.169000
     18 NAL          4.1910    -1.9960    -0.4560 na         1 XEZ       0.005800
     19 NAK          3.8270    -0.7370    -0.6360 nc         1 XEZ      -0.503800
     20 HAC         -2.1330    -2.4670    -0.3030 h4         1 XEZ       0.036100
     21 HAM         -5.9110    -1.0890    -0.1350 hn         1 XEZ       0.374000
     22 HAF         -4.5960     1.0490     0.0630 h4         1 XEZ       0.172000
     23 HAG         -0.1880    -1.0540    -0.1240 h4         1 XEZ       0.158000
     24 HAE         -1.0870     3.7340     0.2080 h4         1 XEZ       0.046100
     25 HAD          3.5880     2.1840     0.1120 h4         1 XEZ       0.237000
     26 HAB          1.4090    -2.0790     1.1610 ha         1 XEZ       0.148000
     27 HAK          5.0590    -2.3240    -0.8490 hn         1 XEZ       0.375000
     28 HAA          3.4610    -3.7520     0.4810 h4         1 XEZ       0.157000
@<TRIPOS>BOND
     1     1     2 2   
     2     1     5 1   
     3     1    20 1   
     4     2     3 1   
     5     3     4 1   
     6     3    21 1   
     7     4     5 2   
     8     4    22 1   
     9     5     6 1   
    10     6     7 2   
    11     6     9 1   
    12     7     8 1   
    13     7    23 1   
    14     8    11 1   
    15     8    14 1   
    16     9    10 2   
    17    10    11 1   
    18    10    24 1   
    19    11    12 2   
    20    12    13 1   
    21    13    14 2   
    22    13    25 1   
    23    14    15 1   
    24    15    16 1   
    25    15    19 2   
    26    16    17 2   
    27    16    26 1   
    28    17    18 1   
    29    17    28 1   
    30    18    19 1   
    31    18    27 1   
@<TRIPOS>SUBSTRUCTURE
     1 XEZ         1 TEMP              0 ****  ****    0 ROOT
