@<TRIPOS>MOLECULE
XEZ
   28    31     1     0     0
SMALL
No Charge or Current Charge


@<TRIPOS>ATOM
      1 CAC         -2.8390    -1.6860    -0.2390 cc         1 XEZ       0.254900
      2 NAH         -4.0470    -2.2090    -0.3070 nd         1 XEZ      -0.520800
      3 NAM         -4.8740    -1.0950    -0.1370 na         1 XEZ      -0.003200
      4 CAF         -4.1490     0.0920     0.0320 cd         1 XEZ      -0.115000
      5 CAN         -2.8410    -0.2970    -0.0350 cc         1 XEZ      -0.271500
      6 CAP         -1.7030     0.5770     0.0860 cc         1 XEZ       0.408500
      7 CAG         -0.4330     0.0080    -0.0310 cd         1 XEZ      -0.158000
      8 NAS          0.6170     0.8720     0.2580 na         1 XEZ       0.168100
      9 NAI         -1.9600     1.9340     0.2760 nc         1 XEZ      -0.670000
     10 CAE         -0.9040     2.7450     0.2490 cd         1 XEZ       0.405900
     11 CAR          0.4130     2.2120     0.1670 cd         1 XEZ      -0.153000
     12 NAJ          1.5560     2.8550    -0.0200 nc         1 XEZ      -0.266600
     13 CAD          2.5090     1.8660    -0.1430 cc         1 XEZ      -0.004400
     14 CAQ          1.9470     0.6150     0.0050 cd         1 XEZ      -0.215900
     15 CAO          2.6940    -0.6180    -0.0150 cd         1 XEZ       0.330800
     16 CAB          2.2070    -1.8950     0.3490 cd         1 XEZ      -0.224000
     17 CAA          3.2350    -2.7840     0.2140 cc         1 XEZ      -0.169000
     18 NAL          4.2970    -1.9910    -0.2160 na         1 XEZ       0.005800
     19 NAK          3.9720    -0.6490    -0.3460 nc         1 XEZ      -0.503800
     20 HAC         -1.9870    -2.3450    -0.3410 h4         1 XEZ       0.036100
     21 HAM         -5.8910    -1.1800    -0.1420 hn         1 XEZ       0.374000
     22 HAF         -4.6090     1.0640     0.1800 h4         1 XEZ       0.172000
     23 HAG         -0.2260    -1.0180    -0.2730 h4         1 XEZ       0.158000
     24 HAE         -1.1240     3.8050     0.2550 h4         1 XEZ       0.046100
     25 HAD          3.5510     2.1220    -0.3200 h4         1 XEZ       0.237000
     26 HAB          1.2200    -2.1430     0.7160 ha         1 XEZ       0.148000
     27 HAK          5.2420    -2.3220    -0.4150 hn         1 XEZ       0.375000
     28 HAA          3.3100    -3.8510     0.3930 h4         1 XEZ       0.157000
@<TRIPOS>BOND
     1     1     2 2   
     2     1     5 1   
     3     1    20 1   
     4     2     3 1   
     5     3     4 1   
     6     3    21 1   
     7     4     5 2   
     8     4    22 1   
     9     5     6 1   
    10     6     7 2   
    11     6     9 1   
    12     7     8 1   
    13     7    23 1   
    14     8    11 1   
    15     8    14 1   
    16     9    10 2   
    17    10    11 1   
    18    10    24 1   
    19    11    12 2   
    20    12    13 1   
    21    13    14 2   
    22    13    25 1   
    23    14    15 1   
    24    15    16 1   
    25    15    19 2   
    26    16    17 2   
    27    16    26 1   
    28    17    18 1   
    29    17    28 1   
    30    18    19 1   
    31    18    27 1   
@<TRIPOS>SUBSTRUCTURE
     1 XEZ         1 TEMP              0 ****  ****    0 ROOT
