@<TRIPOS>MOLECULE
XF1
   52    55     1     0     0
SMALL
abcg2


@<TRIPOS>ATOM
      1 C7         -21.6900    -4.5340   -25.8180 cc         1 XF1       0.006600
      2 C8         -22.9500    -4.3270   -26.2810 cd         1 XF1      -0.161200
      3 C9         -24.1320    -4.5210   -25.4250 ca         1 XF1       0.013200
      4 C10        -24.2610    -3.8930   -24.1770 ca         1 XF1      -0.016000
      5 C11        -23.2620    -2.9830   -23.7170 cg         1 XF1       0.322000
      6 C12        -25.3870    -4.1040   -23.3790 ca         1 XF1      -0.070000
      7 C1         -20.6720    -4.0190   -27.9680 c          1 XF1       0.564200
      8 C2         -19.3110    -4.5640   -26.0470 ca         1 XF1      -0.043400
      9 C3         -18.8450    -3.6480   -25.1170 ca         1 XF1       0.350900
     10 C4         -16.9020    -4.7990   -24.8540 ca         1 XF1       0.345900
     11 C5         -17.2830    -5.7640   -25.7770 ca         1 XF1      -0.159000
     12 C6         -18.5180    -5.6460   -26.3890 ca         1 XF1      -0.046000
     13 O2         -21.4940    -4.5310   -33.2940 os         1 XF1      -0.346100
     14 C13        -26.4030    -4.9280   -23.8250 ca         1 XF1      -0.112000
     15 C14        -26.2970    -5.5380   -25.0680 ca         1 XF1      -0.085000
     16 C15        -25.1750    -5.3350   -25.8560 ca         1 XF1      -0.109000
     17 C16        -23.0890    -3.9650   -27.6450 cd         1 XF1      -0.064000
     18 C17        -22.0160    -3.8170   -28.4680 cc         1 XF1      -0.168400
     19 C18        -22.1940    -3.4050   -29.8740 ca         1 XF1       0.013200
     20 C19        -22.9190    -2.2530   -30.1540 ca         1 XF1      -0.136000
     21 C20        -23.1250    -1.9050   -31.4810 ca         1 XF1       0.153000
     22 C21        -22.6390    -2.6670   -32.5230 ca         1 XF1      -0.140000
     23 C22        -21.9150    -3.8270   -32.2320 ca         1 XF1       0.157100
     24 C23        -20.7430    -5.7200   -33.0860 c3         1 XF1       0.162600
     25 C24        -20.3900    -6.3040   -34.4370 c3         1 XF1      -0.075400
     26 C25        -19.5050    -5.4000   -35.2850 c3         1 XF1      -0.087100
     27 C26        -21.6830    -4.1880   -30.9090 ca         1 XF1      -0.173000
     28 N1         -20.6040    -4.3850   -26.6190 n          1 XF1      -0.188200
     29 N2         -17.6640    -3.7640   -24.5260 nb         1 XF1      -0.653000
     30 N3         -22.4760    -2.2350   -23.3290 n1         1 XF1      -0.452000
     31 CL1        -24.0150    -0.4610   -31.8370 cl         1 XF1      -0.201000
     32 H1         -21.4830    -4.8560   -24.8060 h4         1 XF1       0.214000
     33 H2         -25.4630    -3.6090   -22.4190 ha         1 XF1       0.128000
     34 H3         -19.4570    -2.7940   -24.8410 h4         1 XF1       0.037100
     35 H4         -15.9410    -4.8690   -24.3590 h4         1 XF1       0.025100
     36 H5         -16.6260    -6.5910   -26.0040 ha         1 XF1       0.130000
     37 H6         -18.8600    -6.3820   -27.1060 ha         1 XF1       0.132000
     38 H7         -27.2760    -5.0900   -23.2070 ha         1 XF1       0.123000
     39 H8         -27.0900    -6.1830   -25.4240 ha         1 XF1       0.121000
     40 H9         -25.0980    -5.8330   -26.8150 ha         1 XF1       0.123000
     41 H10        -24.0840    -3.8000   -28.0420 ha         1 XF1       0.197000
     42 H11        -23.3030    -1.6350   -29.3540 ha         1 XF1       0.132000
     43 H12        -22.8110    -2.3820   -33.5530 ha         1 XF1       0.143000
     44 H13        -21.3300    -6.4390   -32.5040 h1         1 XF1       0.037700
     45 H14        -19.8310    -5.4950   -32.5210 h1         1 XF1       0.037700
     46 H15        -21.3060    -6.5580   -34.9760 hc         1 XF1       0.048700
     47 H16        -19.8760    -7.2490   -34.2460 hc         1 XF1       0.048700
     48 H17        -19.2270    -5.8960   -36.2150 hc         1 XF1       0.038033
     49 H18        -20.0080    -4.4700   -35.5470 hc         1 XF1       0.038033
     50 H19        -18.5840    -5.1460   -34.7580 hc         1 XF1       0.038033
     51 H20        -21.1310    -5.0840   -30.6630 ha         1 XF1       0.127000
     52 O1         -19.6480    -3.8790   -28.6160 o          1 XF1      -0.523000
@<TRIPOS>BOND
     1     1     2 2   
     2     1    28 1   
     3     1    32 1   
     4     2     3 1   
     5     2    17 1   
     6     3     4 ar  
     7     3    16 ar  
     8     4     5 1   
     9     4     6 ar  
    10     5    30 3   
    11     6    14 ar  
    12     6    33 1   
    13     7    18 1   
    14     7    28 1   
    15     7    52 2   
    16     8     9 ar  
    17     8    12 ar  
    18     8    28 1   
    19     9    29 ar  
    20     9    34 1   
    21    10    11 ar  
    22    10    29 ar  
    23    10    35 1   
    24    11    12 ar  
    25    11    36 1   
    26    12    37 1   
    27    13    23 1   
    28    13    24 1   
    29    14    15 ar  
    30    14    38 1   
    31    15    16 ar  
    32    15    39 1   
    33    16    40 1   
    34    17    18 2   
    35    17    41 1   
    36    18    19 1   
    37    19    20 ar  
    38    19    27 ar  
    39    20    21 ar  
    40    20    42 1   
    41    21    22 ar  
    42    21    31 1   
    43    22    23 ar  
    44    22    43 1   
    45    23    27 ar  
    46    24    25 1   
    47    24    44 1   
    48    24    45 1   
    49    25    26 1   
    50    25    46 1   
    51    25    47 1   
    52    26    48 1   
    53    26    49 1   
    54    26    50 1   
    55    27    51 1   
@<TRIPOS>SUBSTRUCTURE
     1 XF1         1 TEMP              0 ****  ****    0 ROOT
