@<TRIPOS>MOLECULE
XF1
   52    55     1     0     0
SMALL
No Charge or Current Charge


@<TRIPOS>ATOM
      1 C7         -21.6390    -4.4530   -25.8220 cc         1 XF1       0.006600
      2 C8         -22.9340    -4.3230   -26.3070 cd         1 XF1      -0.161200
      3 C9         -24.1420    -4.4500   -25.4420 ca         1 XF1       0.013200
      4 C10        -24.1960    -4.0560   -24.0700 ca         1 XF1      -0.016000
      5 C11        -23.1150    -3.3810   -23.4030 cg         1 XF1       0.322000
      6 C12        -25.3850    -4.2370   -23.3300 ca         1 XF1      -0.070000
      7 C1         -20.5760    -3.9570   -27.9690 c          1 XF1       0.564200
      8 C2         -19.1820    -4.4250   -25.9470 ca         1 XF1      -0.043400
      9 C3         -18.9840    -4.0100   -24.6050 ca         1 XF1       0.350900
     10 C4         -16.8100    -4.8120   -24.5500 ca         1 XF1       0.345900
     11 C5         -16.9210    -5.3090   -25.8560 ca         1 XF1      -0.159000
     12 C6         -18.1230    -5.1310   -26.5610 ca         1 XF1      -0.046000
     13 O2         -21.5680    -4.6690   -33.3300 os         1 XF1      -0.346100
     14 C13        -26.5230    -4.7970   -23.9260 ca         1 XF1      -0.112000
     15 C14        -26.4870    -5.1720   -25.2740 ca         1 XF1      -0.085000
     16 C15        -25.3120    -4.9960   -26.0210 ca         1 XF1      -0.109000
     17 C16        -23.0740    -3.9700   -27.6990 cd         1 XF1      -0.064000
     18 C17        -21.9520    -3.8040   -28.4850 cc         1 XF1      -0.168400
     19 C18        -22.2230    -3.4400   -29.8760 ca         1 XF1       0.013200
     20 C19        -22.9580    -2.2790   -30.1810 ca         1 XF1      -0.136000
     21 C20        -23.2160    -1.9360   -31.5160 ca         1 XF1       0.153000
     22 C21        -22.7440    -2.7480   -32.5570 ca         1 XF1      -0.140000
     23 C22        -22.0100    -3.9070   -32.2690 ca         1 XF1       0.157100
     24 C23        -20.7950    -5.8690   -33.1450 c3         1 XF1       0.162600
     25 C24        -20.4660    -6.4500   -34.5360 c3         1 XF1      -0.075400
     26 C25        -19.5700    -5.5370   -35.4010 c3         1 XF1      -0.087100
     27 C26        -21.7510    -4.2530   -30.9240 ca         1 XF1      -0.173000
     28 N1         -20.4790    -4.3170   -26.6010 n          1 XF1      -0.188200
     29 N2         -17.8250    -4.1780   -23.9220 nb         1 XF1      -0.653000
     30 N3         -22.2440    -2.8350   -22.8480 n1         1 XF1      -0.452000
     31 Cl1        -24.1330    -0.4820   -31.8860 cl         1 XF1      -0.201000
     32 H1         -21.4110    -4.7740   -24.8140 h4         1 XF1       0.214000
     33 H2         -25.4330    -3.9270   -22.2880 ha         1 XF1       0.128000
     34 H3         -19.7700    -3.4900   -24.0610 h4         1 XF1       0.037100
     35 H4         -15.8890    -4.9400   -23.9820 h4         1 XF1       0.025100
     36 H5         -16.0860    -5.8370   -26.3080 ha         1 XF1       0.130000
     37 H6         -18.2260    -5.5530   -27.5580 ha         1 XF1       0.132000
     38 H7         -27.4330    -4.9320   -23.3460 ha         1 XF1       0.123000
     39 H8         -27.3680    -5.6080   -25.7410 ha         1 XF1       0.121000
     40 H9         -25.3100    -5.3290   -27.0550 ha         1 XF1       0.123000
     41 H10        -24.0590    -3.8170   -28.1320 ha         1 XF1       0.197000
     42 H11        -23.3230    -1.6370   -29.3830 ha         1 XF1       0.132000
     43 H12        -22.9460    -2.4780   -33.5900 ha         1 XF1       0.143000
     44 H13        -21.3660    -6.6090   -32.5700 h1         1 XF1       0.037700
     45 H14        -19.8620    -5.6530   -32.6080 h1         1 XF1       0.037700
     46 H15        -21.4010    -6.6570   -35.0710 hc         1 XF1       0.048700
     47 H16        -19.9620    -7.4140   -34.4000 hc         1 XF1       0.048700
     48 H17        -19.3460    -6.0210   -36.3590 hc         1 XF1       0.038033
     49 H18        -20.0670    -4.5820   -35.6090 hc         1 XF1       0.038033
     50 H19        -18.6210    -5.3300   -34.8910 hc         1 XF1       0.038033
     51 H20        -21.1880    -5.1470   -30.6750 ha         1 XF1       0.127000
     52 O1         -19.5920    -3.7500   -28.6710 o          1 XF1      -0.523000
@<TRIPOS>BOND
     1     1     2 2   
     2     1    28 1   
     3     1    32 1   
     4     2     3 1   
     5     2    17 1   
     6     3     4 ar  
     7     3    16 ar  
     8     4     5 1   
     9     4     6 ar  
    10     5    30 3   
    11     6    14 ar  
    12     6    33 1   
    13     7    18 1   
    14     7    28 1   
    15     7    52 2   
    16     8     9 ar  
    17     8    12 ar  
    18     8    28 1   
    19     9    29 ar  
    20     9    34 1   
    21    10    11 ar  
    22    10    29 ar  
    23    10    35 1   
    24    11    12 ar  
    25    11    36 1   
    26    12    37 1   
    27    13    23 1   
    28    13    24 1   
    29    14    15 ar  
    30    14    38 1   
    31    15    16 ar  
    32    15    39 1   
    33    16    40 1   
    34    17    18 2   
    35    17    41 1   
    36    18    19 1   
    37    19    20 ar  
    38    19    27 ar  
    39    20    21 ar  
    40    20    42 1   
    41    21    22 ar  
    42    21    31 1   
    43    22    23 ar  
    44    22    43 1   
    45    23    27 ar  
    46    24    25 1   
    47    24    44 1   
    48    24    45 1   
    49    25    26 1   
    50    25    46 1   
    51    25    47 1   
    52    26    48 1   
    53    26    49 1   
    54    26    50 1   
    55    27    51 1   
@<TRIPOS>SUBSTRUCTURE
     1 XF1         1 TEMP              0 ****  ****    0 ROOT
