@<TRIPOS>MOLECULE
XF2
   22    22     1     0     0
SMALL
No Charge or Current Charge


@<TRIPOS>ATOM
      1 N1          21.0310   -10.5940    37.2550 n2         1 XF2      -0.330400
      2 C1          20.7020   -12.2040    34.8220 ca         1 XF2      -0.081000
      3 C2          20.6170   -13.0120    33.6740 ca         1 XF2      -0.107000
      4 C3          21.6220   -13.9520    33.3990 ca         1 XF2       0.128000
      5 C4          22.7140   -14.0870    34.2700 ca         1 XF2      -0.107000
      6 C5          22.8020   -13.2810    35.4190 ca         1 XF2      -0.081000
      7 C6          21.7980   -12.3320    35.7060 ca         1 XF2      -0.115900
      8 C7          21.9210   -11.4880    36.9360 ce         1 XF2       0.345800
      9 N3          20.8650    -8.2330    39.8330 nv         1 XF2      -1.080200
     10 N2          21.1740    -9.8330    38.3980 nu         1 XF2      -0.622500
     11 C9          20.2900    -8.9070    38.8460 c2         1 XF2       0.816100
     12 N4          19.0910    -8.8180    38.4820 n2         1 XF2      -0.831100
     13 H1          19.9140   -11.4800    35.0190 ha         1 XF2       0.129000
     14 H2          19.7720   -12.9090    32.9980 ha         1 XF2       0.131000
     15 H3          23.4910   -14.8160    34.0550 ha         1 XF2       0.131000
     16 H4          23.6540   -13.3940    36.0870 ha         1 XF2       0.129000
     17 H5          22.8020   -11.6590    37.5600 h4         1 XF2      -0.018200
     18 H6          21.7190    -7.7800    39.5310 hn         1 XF2       0.459000
     19 H7          20.2360    -7.6000    40.3100 hn         1 XF2       0.459000
     20 H8          21.9490    -9.9480    39.0470 hn         1 XF2       0.479000
     21 H9          18.6470    -8.0780    39.0320 hn         1 XF2       0.377400
     22 Cl1         21.5120   -14.9610    31.9630 cl         1 XF2      -0.212000
@<TRIPOS>BOND
     1     1     8 2   
     2     1    10 1   
     3     2     3 ar  
     4     2     7 ar  
     5     2    13 1   
     6     3     4 ar  
     7     3    14 1   
     8     4     5 ar  
     9     4    22 1   
    10     5     6 ar  
    11     5    15 1   
    12     6     7 ar  
    13     6    16 1   
    14     7     8 1   
    15     8    17 1   
    16     9    11 1   
    17     9    18 1   
    18     9    19 1   
    19    10    11 1   
    20    10    20 1   
    21    11    12 2   
    22    12    21 1   
@<TRIPOS>SUBSTRUCTURE
     1 XF2         1 TEMP              0 ****  ****    0 ROOT
