@<TRIPOS>MOLECULE
XF2
   22    22     1     0     0
SMALL
abcg2


@<TRIPOS>ATOM
      1 N1          21.0540   -10.5620    37.2100 n2         1 XF2      -0.330400
      2 C1          20.6840   -12.1880    34.8490 ca         1 XF2      -0.081000
      3 C2          20.5710   -13.0200    33.7490 ca         1 XF2      -0.107000
      4 C3          21.5790   -13.9450    33.4900 ca         1 XF2       0.128000
      5 C4          22.6930   -14.0450    34.3110 ca         1 XF2      -0.107000
      6 C5          22.7940   -13.2040    35.4110 ca         1 XF2      -0.081000
      7 C6          21.7960   -12.2670    35.6990 ca         1 XF2      -0.115900
      8 C7          21.9480   -11.4140    36.8740 ce         1 XF2       0.345800
      9 N3          20.7340    -8.3230    39.9580 nv         1 XF2      -1.080200
     10 N2          21.2810    -9.8120    38.3040 nu         1 XF2      -0.622500
     11 C9          20.3190    -8.9490    38.7990 c2         1 XF2       0.816100
     12 N4          19.1710    -8.8260    38.2360 n2         1 XF2      -0.831100
     13 H1          19.9040   -11.4670    35.0560 ha         1 XF2       0.129000
     14 H2          19.7120   -12.9550    33.0960 ha         1 XF2       0.131000
     15 H3          23.4680   -14.7680    34.0960 ha         1 XF2       0.131000
     16 H4          23.6600   -13.2770    36.0580 ha         1 XF2       0.129000
     17 H5          22.8630   -11.5400    37.4590 h4         1 XF2      -0.018200
     18 H6          21.7270    -8.1850    40.0790 hn         1 XF2       0.459000
     19 H7          20.1880    -7.5190    40.2270 hn         1 XF2       0.459000
     20 H8          22.1200    -9.9740    38.8510 hn         1 XF2       0.479000
     21 H9          18.6200    -8.1280    38.7290 hn         1 XF2       0.377400
     22 CL1         21.4360   -14.9980    32.1000 cl         1 XF2      -0.212000
@<TRIPOS>BOND
     1     1     8 2   
     2     1    10 1   
     3     2     3 ar  
     4     2     7 ar  
     5     2    13 1   
     6     3     4 ar  
     7     3    14 1   
     8     4     5 ar  
     9     4    22 1   
    10     5     6 ar  
    11     5    15 1   
    12     6     7 ar  
    13     6    16 1   
    14     7     8 1   
    15     8    17 1   
    16     9    11 1   
    17     9    18 1   
    18     9    19 1   
    19    10    11 1   
    20    10    20 1   
    21    11    12 2   
    22    12    21 1   
@<TRIPOS>SUBSTRUCTURE
     1 XF2         1 TEMP              0 ****  ****    0 ROOT
