@<TRIPOS>MOLECULE
XF4
   55    59     1     0     0
SMALL
No Charge or Current Charge


@<TRIPOS>ATOM
      1 C1         -13.9420   -26.7580     0.9930 c          1 XF4       0.563200
      2 C2         -14.1240   -28.7820    -0.4490 cc         1 XF4      -0.072000
      3 C3         -14.6550   -27.5610    -0.0510 cd         1 XF4      -0.167400
      4 C4         -15.9940   -27.1360    -0.5520 ca         1 XF4       0.013200
      5 C5         -16.9700   -28.0980    -0.9020 ca         1 XF4      -0.141000
      6 C6         -11.8560   -26.6760     2.4080 ca         1 XF4      -0.041400
      7 C7         -18.2290   -27.7050    -1.3800 ca         1 XF4       0.152000
      8 C8         -18.5400   -26.3490    -1.5260 ca         1 XF4      -0.138000
      9 C9         -17.5900   -25.3750    -1.1960 ca         1 XF4       0.153100
     10 C10        -17.0550   -22.9700    -1.0430 c3         1 XF4       0.208900
     11 C11        -17.7680   -21.6570    -1.3360 ca         1 XF4      -0.097300
     12 C12        -16.3210   -25.7700    -0.7140 ca         1 XF4      -0.171000
     13 C13        -12.3650   -26.3840     3.6950 ca         1 XF4       0.370900
     14 C14        -10.3370   -25.5080     4.4000 ca         1 XF4       0.348900
     15 C15         -9.7490   -25.7500     3.1460 ca         1 XF4      -0.160000
     16 C16        -10.5160   -26.3400     2.1280 ca         1 XF4      -0.061000
     17 C17        -12.1880   -28.4980     0.9720 cd         1 XF4       0.019600
     18 C18        -12.8610   -29.2890     0.0530 cc         1 XF4      -0.142000
     19 C24        -12.3070   -30.5860    -0.3820 cc         1 XF4      -0.212200
     20 C25        -13.1040   -31.4290    -1.1520 cd         1 XF4       0.006600
     21 C26        -10.9190   -31.0750    -0.0430 c          1 XF4       0.592200
     22 C30        -11.3620   -33.1400    -1.2690 c          1 XF4       0.616000
     23 C32        -18.5350   -21.0260    -0.3360 ca         1 XF4      -0.084000
     24 C33        -19.1930   -19.8130    -0.6070 ca         1 XF4      -0.115000
     25 C34        -19.0880   -19.2240    -1.8790 ca         1 XF4      -0.098000
     26 C35        -18.3260   -19.8500    -2.8800 ca         1 XF4      -0.115000
     27 C36        -17.6680   -21.0630    -2.6100 ca         1 XF4      -0.084000
     28 N19        -12.6980   -27.2730     1.3980 n          1 XF4      -0.190200
     29 N20        -11.6240   -25.8170     4.6800 nb         1 XF4      -0.655000
     30 N28        -10.6050   -32.3090    -0.5250 ns         1 XF4      -0.469500
     31 N29        -12.5950   -32.6520    -1.5560 ns         1 XF4      -0.514600
     32 O21        -14.3820   -25.7300     1.4930 o          1 XF4      -0.531000
     33 O22        -17.9430   -24.0530    -1.3680 os         1 XF4      -0.342100
     34 O27        -10.0720   -30.4680     0.5880 o          1 XF4      -0.524000
     35 O31        -10.9770   -34.2280    -1.6510 o          1 XF4      -0.541000
     36 Cl23       -19.4280   -28.9250    -1.7900 cl         1 XF4      -0.202000
     37 H1         -14.6520   -29.3360    -1.2110 ha         1 XF4       0.188000
     38 H2         -16.7820   -29.1590    -0.7730 ha         1 XF4       0.130000
     39 H3         -19.5160   -26.0510    -1.8960 ha         1 XF4       0.144000
     40 H4         -16.7740   -23.0050     0.0180 h1         1 XF4       0.046700
     41 H5         -16.1360   -23.0280    -1.6420 h1         1 XF4       0.046700
     42 H6         -15.5730   -25.0160    -0.5010 ha         1 XF4       0.132000
     43 H7         -13.3960   -26.6240     3.9500 h4         1 XF4       0.037100
     44 H8          -9.7610   -25.0520     5.2040 h4         1 XF4       0.025100
     45 H9          -8.7120   -25.4770     2.9720 ha         1 XF4       0.129000
     46 H10        -10.0830   -26.5260     1.1470 ha         1 XF4       0.128000
     47 H11        -11.2650   -28.7580     1.4700 h4         1 XF4       0.220000
     48 H13        -14.1290   -31.2660    -1.4680 h4         1 XF4       0.211000
     49 H14        -18.6230   -21.4760     0.6500 ha         1 XF4       0.115000
     50 H15        -19.7830   -19.3300     0.1680 ha         1 XF4       0.114500
     51 H16        -19.5970   -18.2860    -2.0880 ha         1 XF4       0.113000
     52 H17        -18.2460   -19.3960    -3.8660 ha         1 XF4       0.114500
     53 H18        -17.0820   -21.5420    -3.3920 ha         1 XF4       0.115000
     54 H19         -9.6810   -32.6410    -0.3030 hn         1 XF4       0.346500
     55 H12        -13.1580   -33.2880    -2.1150 hn         1 XF4       0.466000
@<TRIPOS>BOND
     1     1     3 1   
     2     1    28 1   
     3     1    32 2   
     4     2     3 2   
     5     2    18 1   
     6     2    37 1   
     7     3     4 1   
     8     4     5 ar  
     9     4    12 ar  
    10     5     7 ar  
    11     5    38 1   
    12     6    13 ar  
    13     6    16 ar  
    14     6    28 1   
    15     7     8 ar  
    16     7    36 1   
    17     8     9 ar  
    18     8    39 1   
    19     9    12 ar  
    20     9    33 1   
    21    10    11 1   
    22    10    33 1   
    23    10    40 1   
    24    10    41 1   
    25    11    23 ar  
    26    11    27 ar  
    27    12    42 1   
    28    13    29 ar  
    29    13    43 1   
    30    14    15 ar  
    31    14    29 ar  
    32    14    44 1   
    33    15    16 ar  
    34    15    45 1   
    35    16    46 1   
    36    17    18 2   
    37    17    28 1   
    38    17    47 1   
    39    18    19 1   
    40    19    20 2   
    41    19    21 1   
    42    20    31 1   
    43    20    48 1   
    44    21    30 1   
    45    21    34 2   
    46    22    30 1   
    47    22    31 1   
    48    22    35 2   
    49    23    24 ar  
    50    23    49 1   
    51    24    25 ar  
    52    24    50 1   
    53    25    26 ar  
    54    25    51 1   
    55    26    27 ar  
    56    26    52 1   
    57    27    53 1   
    58    30    54 1   
    59    31    55 1   
@<TRIPOS>SUBSTRUCTURE
     1 XF4         1 TEMP              0 ****  ****    0 ROOT
