@<TRIPOS>MOLECULE
XF4
   55    59     1     0     0
SMALL
abcg2


@<TRIPOS>ATOM
      1 C1         -13.8930   -26.7950     1.0630 c          1 XF4       0.563200
      2 C2         -14.1590   -28.7780    -0.3290 cc         1 XF4      -0.072000
      3 C3         -14.6640   -27.5990     0.1350 cd         1 XF4      -0.167400
      4 C4         -16.0160   -27.1490    -0.2510 ca         1 XF4       0.013200
      5 C5         -17.0610   -28.0690    -0.2460 ca         1 XF4      -0.141000
      6 C6         -11.8630   -26.6140     2.3470 ca         1 XF4      -0.041400
      7 C7         -18.3240   -27.6510    -0.6370 ca         1 XF4       0.152000
      8 C8         -18.5810   -26.3510    -1.0160 ca         1 XF4      -0.138000
      9 C9         -17.5300   -25.4310    -1.0130 ca         1 XF4       0.153100
     10 C10        -16.8860   -23.1480    -1.2640 c3         1 XF4       0.208900
     11 C11        -17.5910   -21.8480    -1.5030 ca         1 XF4      -0.097300
     12 C12        -16.2520   -25.8290    -0.6380 ca         1 XF4      -0.171000
     13 C13        -12.1340   -26.7050     3.7040 ca         1 XF4       0.370900
     14 C14        -10.4050   -25.3160     4.2090 ca         1 XF4       0.348900
     15 C15        -10.0590   -25.1660     2.8750 ca         1 XF4      -0.160000
     16 C16        -10.8090   -25.8290     1.9170 ca         1 XF4      -0.061000
     17 C17        -12.1720   -28.5150     0.9290 cd         1 XF4       0.019600
     18 C18        -12.8850   -29.2700     0.0510 cc         1 XF4      -0.142000
     19 C24        -12.3670   -30.5380    -0.4780 cc         1 XF4      -0.212200
     20 C25        -12.4440   -30.8450    -1.7900 cd         1 XF4       0.006600
     21 C26        -11.7950   -31.5310     0.4210 c          1 XF4       0.592200
     22 C30        -11.4690   -33.0240    -1.5300 c          1 XF4       0.616000
     23 C32        -18.4730   -21.3520    -0.5450 ca         1 XF4      -0.084000
     24 C33        -19.1510   -20.1630    -0.7610 ca         1 XF4      -0.115000
     25 C34        -18.9520   -19.4520    -1.9390 ca         1 XF4      -0.098000
     26 C35        -18.0730   -19.9370    -2.8970 ca         1 XF4      -0.115000
     27 C36        -17.3980   -21.1330    -2.6790 ca         1 XF4      -0.084000
     28 N19        -12.6590   -27.3440     1.4150 n          1 XF4      -0.190200
     29 N20        -11.4210   -26.0690     4.6200 nb         1 XF4      -0.655000
     30 N28        -11.3930   -32.7020    -0.1980 ns         1 XF4      -0.469500
     31 N29        -12.0210   -32.0300    -2.2960 ns         1 XF4      -0.514600
     32 O21        -14.2400   -25.7280     1.5460 o          1 XF4      -0.531000
     33 O22        -17.8560   -24.1820    -1.3880 os         1 XF4      -0.342100
     34 O27        -11.6630   -31.3970     1.6220 o          1 XF4      -0.524000
     35 O31        -11.0850   -34.0790    -1.9820 o          1 XF4      -0.541000
     36 CL23       -19.6270   -28.7940    -0.6250 cl         1 XF4      -0.202000
     37 H1         -14.7550   -29.3680    -1.0160 ha         1 XF4       0.188000
     38 H2         -16.8980   -29.0890     0.0760 ha         1 XF4       0.130000
     39 H3         -19.5750   -26.0360    -1.3050 ha         1 XF4       0.144000
     40 H4         -16.4470   -23.1630    -0.2610 h1         1 XF4       0.046700
     41 H5         -16.0760   -23.2920    -1.9870 h1         1 XF4       0.046700
     42 H6         -15.4280   -25.1320    -0.6570 ha         1 XF4       0.132000
     43 H7         -12.9560   -27.3220     4.0540 h4         1 XF4       0.037100
     44 H8          -9.8370   -24.8080     4.9800 h4         1 XF4       0.025100
     45 H9          -9.2220   -24.5420     2.5940 ha         1 XF4       0.129000
     46 H10        -10.5800   -25.7400     0.8620 ha         1 XF4       0.128000
     47 H11        -11.1900   -28.7920     1.2830 h4         1 XF4       0.220000
     48 H13        -12.8480   -30.1560    -2.5200 h4         1 XF4       0.211000
     49 H14        -18.6240   -21.8960     0.3800 ha         1 XF4       0.115000
     50 H15        -19.8320   -19.7860    -0.0080 ha         1 XF4       0.114500
     51 H16        -19.4790   -18.5220    -2.1070 ha         1 XF4       0.113000
     52 H17        -17.9130   -19.3880    -3.8160 ha         1 XF4       0.114500
     53 H18        -16.7150   -21.5110    -3.4310 ha         1 XF4       0.115000
     54 H19        -10.9940   -33.4140     0.4020 hn         1 XF4       0.346500
     55 H12        -12.0960   -32.2000    -3.2890 hn         1 XF4       0.466000
@<TRIPOS>BOND
     1     1     3 1   
     2     1    28 1   
     3     1    32 2   
     4     2     3 2   
     5     2    18 1   
     6     2    37 1   
     7     3     4 1   
     8     4     5 ar  
     9     4    12 ar  
    10     5     7 ar  
    11     5    38 1   
    12     6    13 ar  
    13     6    16 ar  
    14     6    28 1   
    15     7     8 ar  
    16     7    36 1   
    17     8     9 ar  
    18     8    39 1   
    19     9    12 ar  
    20     9    33 1   
    21    10    11 1   
    22    10    33 1   
    23    10    40 1   
    24    10    41 1   
    25    11    23 ar  
    26    11    27 ar  
    27    12    42 1   
    28    13    29 ar  
    29    13    43 1   
    30    14    15 ar  
    31    14    29 ar  
    32    14    44 1   
    33    15    16 ar  
    34    15    45 1   
    35    16    46 1   
    36    17    18 2   
    37    17    28 1   
    38    17    47 1   
    39    18    19 1   
    40    19    20 2   
    41    19    21 1   
    42    20    31 1   
    43    20    48 1   
    44    21    30 1   
    45    21    34 2   
    46    22    30 1   
    47    22    31 1   
    48    22    35 2   
    49    23    24 ar  
    50    23    49 1   
    51    24    25 ar  
    52    24    50 1   
    53    25    26 ar  
    54    25    51 1   
    55    26    27 ar  
    56    26    52 1   
    57    27    53 1   
    58    30    54 1   
    59    31    55 1   
@<TRIPOS>SUBSTRUCTURE
     1 XF4         1 TEMP              0 ****  ****    0 ROOT
