@<TRIPOS>MOLECULE
XF5
   30    32     1     0     0
SMALL
abcg2


@<TRIPOS>ATOM
      1 C11         -2.1640     0.7850    -0.9800 c6         1 XF5       0.152300
      2 C12         -3.4140    -0.0700    -1.1580 c6         1 XF5       0.143300
      3 N13         -3.9620    -0.5750     0.0900 n7         1 XF5      -0.841400
      4 C14         -2.9280    -1.2350     0.8700 c6         1 XF5       0.143300
      5 C15         -1.6800    -0.3850     1.0580 c6         1 XF5       0.152300
      6 N10         -1.1630     0.0410    -0.2390 nh         1 XF5      -0.773400
      7 C3           0.1430     0.5430    -0.2420 ca         1 XF5       0.325000
      8 C4           1.2110    -0.3060     0.1270 ca         1 XF5      -0.114800
      9 C5           1.2920    -1.6840     0.5070 cc         1 XF5      -0.227200
     10 C6           2.6130    -1.9570     0.7170 cd         1 XF5      -0.177100
     11 N7           3.3540    -0.8350     0.4880 na         1 XF5      -0.223700
     12 C8           2.5310     0.1890     0.1160 ca         1 XF5      -0.033200
     13 C9           2.8470     1.4930    -0.2720 ca         1 XF5      -0.153000
     14 C1           1.7940     2.2950    -0.6520 ca         1 XF5      -0.068000
     15 C2           0.4650     1.8370    -0.6310 ca         1 XF5      -0.201000
     16 H111        -1.7650     1.0500    -1.9610 h1         1 XF5       0.040950
     17 H112        -2.4390     1.7240    -0.4740 h1         1 XF5       0.040950
     18 H121        -4.1780     0.5110    -1.6770 h1         1 XF5       0.059450
     19 H122        -3.1700    -0.9240    -1.7980 h1         1 XF5       0.059450
     20 H13         -4.3260     0.2050     0.6270 hn         1 XF5       0.399000
     21 H141        -3.3340    -1.5080     1.8450 h1         1 XF5       0.059450
     22 H142        -2.6510    -2.1640     0.3620 h1         1 XF5       0.059450
     23 H151        -1.9250     0.4900     1.6830 h1         1 XF5       0.040950
     24 H152        -0.9240    -0.9560     1.5960 h1         1 XF5       0.040950
     25 H2          -0.3160     2.5270    -0.9240 ha         1 XF5       0.109000
     26 H5           0.4840    -2.3900     0.6010 ha         1 XF5       0.206000
     27 H6           3.0880    -2.8780     1.0140 h4         1 XF5       0.210000
     28 H7           4.3560    -0.7810     0.5570 hn         1 XF5       0.347000
     29 H9           3.8690     1.8490    -0.2900 ha         1 XF5       0.113000
     30 H1           1.9870     3.3130    -0.9660 ha         1 XF5       0.108000
@<TRIPOS>BOND
     1     1     2 1   
     2     1     6 1   
     3     1    16 1   
     4     1    17 1   
     5     2     3 1   
     6     2    18 1   
     7     2    19 1   
     8     3     4 1   
     9     3    20 1   
    10     4     5 1   
    11     4    21 1   
    12     4    22 1   
    13     5     6 1   
    14     5    23 1   
    15     5    24 1   
    16     6     7 1   
    17     7     8 ar  
    18     7    15 ar  
    19     8     9 1   
    20     8    12 ar  
    21     9    10 2   
    22     9    26 1   
    23    10    11 1   
    24    10    27 1   
    25    11    12 1   
    26    11    28 1   
    27    12    13 ar  
    28    13    14 ar  
    29    13    29 1   
    30    14    15 ar  
    31    14    30 1   
    32    15    25 1   
@<TRIPOS>SUBSTRUCTURE
     1 XF5         1 TEMP              0 ****  ****    0 ROOT
