@<TRIPOS>MOLECULE
XF5
   30    32     1     0     0
SMALL
No Charge or Current Charge


@<TRIPOS>ATOM
      1 C11         -2.1790     0.7110    -1.0830 c6         1 XF5       0.152300
      2 C12         -3.4240    -0.2260    -1.2300 c6         1 XF5       0.143300
      3 N13         -4.0250    -0.5970     0.0850 n7         1 XF5      -0.841400
      4 C14         -2.9960    -1.2030     0.9800 c6         1 XF5       0.143300
      5 C15         -1.7430    -0.2850     1.1670 c6         1 XF5       0.152300
      6 N10         -1.1590     0.1590    -0.1370 nh         1 XF5      -0.773400
      7 C3           0.1840     0.6080    -0.1790 ca         1 XF5       0.325000
      8 C4           1.2620    -0.2590     0.0960 ca         1 XF5      -0.114800
      9 C5           1.2910    -1.6600     0.4140 cc         1 XF5      -0.227200
     10 C6           2.6220    -2.0210     0.5760 cd         1 XF5      -0.177100
     11 N7           3.4320    -0.8790     0.3640 na         1 XF5      -0.223700
     12 C8           2.5640     0.1610     0.0680 ca         1 XF5      -0.033200
     13 C9           2.8960     1.4860    -0.2400 ca         1 XF5      -0.153000
     14 C1           1.8490     2.3860    -0.5250 ca         1 XF5      -0.068000
     15 C2           0.5040     1.9490    -0.4950 ca         1 XF5      -0.201000
     16 H111        -1.7330     0.8560    -2.0780 h1         1 XF5       0.040950
     17 H112        -2.5180     1.6960    -0.7300 h1         1 XF5       0.040950
     18 H121        -4.1790     0.2710    -1.8580 h1         1 XF5       0.059450
     19 H122        -3.1150    -1.1400    -1.7590 h1         1 XF5       0.059450
     20 H13         -4.3600     0.2650     0.5310 hn         1 XF5       0.399000
     21 H141        -3.4380    -1.4180     1.9640 h1         1 XF5       0.059450
     22 H142        -2.6670    -2.1640     0.5550 h1         1 XF5       0.059450
     23 H151        -2.0360     0.5980     1.7550 h1         1 XF5       0.040950
     24 H152        -0.9960    -0.8300     1.7610 h1         1 XF5       0.040950
     25 H2          -0.2860     2.6610    -0.7080 ha         1 XF5       0.109000
     26 H5           0.4370    -2.3290     0.5000 ha         1 XF5       0.206000
     27 H6           3.0490    -2.9930     0.8180 h4         1 XF5       0.210000
     28 H7           4.4460    -0.8300     0.4110 hn         1 XF5       0.347000
     29 H9           3.9330     1.8130    -0.2630 ha         1 XF5       0.113000
     30 H1           2.0780     3.4220    -0.7670 ha         1 XF5       0.108000
@<TRIPOS>BOND
     1     1     2 1   
     2     1     6 1   
     3     1    16 1   
     4     1    17 1   
     5     2     3 1   
     6     2    18 1   
     7     2    19 1   
     8     3     4 1   
     9     3    20 1   
    10     4     5 1   
    11     4    21 1   
    12     4    22 1   
    13     5     6 1   
    14     5    23 1   
    15     5    24 1   
    16     6     7 1   
    17     7     8 ar  
    18     7    15 ar  
    19     8     9 1   
    20     8    12 ar  
    21     9    10 2   
    22     9    26 1   
    23    10    11 1   
    24    10    27 1   
    25    11    12 1   
    26    11    28 1   
    27    12    13 ar  
    28    13    14 ar  
    29    13    29 1   
    30    14    15 ar  
    31    14    30 1   
    32    15    25 1   
@<TRIPOS>SUBSTRUCTURE
     1 XF5         1 TEMP              0 ****  ****    0 ROOT
