@<TRIPOS>MOLECULE
XF7
   55    59     1     0     0
SMALL
No Charge or Current Charge


@<TRIPOS>ATOM
      1 C1         -20.3620    -4.6350   -28.0250 c          1 XF7       0.563200
      2 C2         -22.7480    -4.4020   -27.3470 cc         1 XF7      -0.071000
      3 C3         -21.8120    -4.4910   -28.3710 cd         1 XF7      -0.167400
      4 C4         -22.2390    -4.2920   -29.7850 ca         1 XF7       0.012200
      5 C5         -23.3490    -3.4710   -30.0950 ca         1 XF7      -0.138000
      6 C6         -18.7600    -4.9260   -26.1000 ca         1 XF7      -0.041400
      7 C7         -23.7590    -3.2850   -31.4230 ca         1 XF7       0.151000
      8 C8         -23.0790    -3.9170   -32.4700 ca         1 XF7      -0.134000
      9 C9         -21.9840    -4.7430   -32.1920 ca         1 XF7       0.153100
     10 C10        -20.1980    -6.1900   -33.0960 c3         1 XF7       0.209900
     11 C11        -19.7400    -6.6550   -34.4740 ca         1 XF7      -0.088300
     12 C12        -21.5690    -4.9310   -30.8550 ca         1 XF7      -0.169000
     13 C13        -17.7590    -3.9670   -26.3820 ca         1 XF7       0.373900
     14 C14        -16.1850    -5.0990   -25.1100 ca         1 XF7       0.348900
     15 C15        -17.1100    -6.1060   -24.7860 ca         1 XF7      -0.160000
     16 C16        -18.4190    -6.0260   -25.2880 ca         1 XF7      -0.065000
     17 C17        -21.0500    -4.7120   -25.6540 cd         1 XF7       0.018600
     18 C18        -22.3920    -4.5150   -25.9460 cc         1 XF7      -0.143000
     19 C24        -23.3970    -4.4230   -24.8700 cc         1 XF7      -0.211200
     20 C26        -23.1170    -4.7200   -23.4160 c          1 XF7       0.592200
     21 C25        -24.6940    -4.0350   -25.1970 cd         1 XF7       0.005600
     22 C30        -25.4370    -4.1820   -22.8730 c          1 XF7       0.616000
     23 C32        -20.1050    -7.9380   -34.9310 ca         1 XF7      -0.084000
     24 C33        -19.6940    -8.3860   -36.1990 ca         1 XF7      -0.114000
     25 C34        -18.9160    -7.5550   -37.0210 ca         1 XF7      -0.091000
     26 C35        -18.5510    -6.2740   -36.5740 ca         1 XF7      -0.109000
     27 C36        -18.9590    -5.8220   -35.3080 ca         1 XF7       0.145000
     28 N19        -20.0850    -4.7950   -26.6560 n          1 XF7      -0.188200
     29 N20        -16.4940    -4.0420   -25.8960 nb         1 XF7      -0.655000
     30 N28        -24.1760    -4.5590   -22.5760 ns         1 XF7      -0.469500
     31 N29        -25.6410    -3.9380   -24.1920 ns         1 XF7      -0.514600
     32 O21        -19.4520    -4.6070   -28.8450 o          1 XF7      -0.529000
     33 O22        -21.3540    -5.3490   -33.2600 os         1 XF7      -0.336100
     34 O27        -22.0600    -5.1020   -22.9460 o          1 XF7      -0.523000
     35 O31        -26.3130    -4.0720   -22.0380 o          1 XF7      -0.543000
     36 Cl23       -25.1310    -2.2430   -31.7760 cl         1 XF7      -0.202000
     37 Cl24       -18.4780    -4.2040   -34.7950 cl         1 XF7      -0.190000
     38 H1         -23.7880    -4.3100   -27.6240 ha         1 XF7       0.188000
     39 H2         -23.8840    -2.9370   -29.3160 ha         1 XF7       0.130000
     40 H3         -23.4010    -3.7690   -33.4960 ha         1 XF7       0.145000
     41 H4         -20.4430    -7.0630   -32.4780 h1         1 XF7       0.052200
     42 H5         -19.3860    -5.6460   -32.5980 h1         1 XF7       0.052200
     43 H6         -20.7490    -5.6050   -30.6390 ha         1 XF7       0.131000
     44 H7         -17.9800    -3.1040   -27.0090 h4         1 XF7       0.038100
     45 H8         -15.1640    -5.1410   -24.7310 h4         1 XF7       0.025100
     46 H9         -16.8070    -6.9370   -24.1550 ha         1 XF7       0.129000
     47 H10        -19.1480    -6.8010   -25.0580 ha         1 XF7       0.127000
     48 H11        -20.6230    -4.7670   -24.6620 h4         1 XF7       0.220000
     49 H13        -25.0740    -3.7550   -26.1740 h4         1 XF7       0.211000
     50 H14        -20.7100    -8.5900   -34.3040 ha         1 XF7       0.116000
     51 H15        -19.9800    -9.3780   -36.5430 ha         1 XF7       0.119000
     52 H16        -18.5980    -7.9020   -38.0020 ha         1 XF7       0.119000
     53 H17        -17.9500    -5.6290   -37.2100 ha         1 XF7       0.131000
     54 H18        -23.9970    -4.7550   -21.6050 hn         1 XF7       0.346500
     55 H12        -26.5940    -3.6510   -24.4040 hn         1 XF7       0.466000
@<TRIPOS>BOND
     1     1     3 1   
     2     1    28 1   
     3     1    32 2   
     4     2     3 2   
     5     2    18 1   
     6     2    38 1   
     7     3     4 1   
     8     4     5 ar  
     9     4    12 ar  
    10     5     7 ar  
    11     5    39 1   
    12     6    13 ar  
    13     6    16 ar  
    14     6    28 1   
    15     7     8 ar  
    16     7    36 1   
    17     8     9 ar  
    18     8    40 1   
    19     9    12 ar  
    20     9    33 1   
    21    10    11 1   
    22    10    33 1   
    23    10    41 1   
    24    10    42 1   
    25    11    23 ar  
    26    11    27 ar  
    27    12    43 1   
    28    13    29 ar  
    29    13    44 1   
    30    14    15 ar  
    31    14    29 ar  
    32    14    45 1   
    33    15    16 ar  
    34    15    46 1   
    35    16    47 1   
    36    17    18 2   
    37    17    28 1   
    38    17    48 1   
    39    18    19 1   
    40    19    20 1   
    41    19    21 2   
    42    20    30 1   
    43    20    34 2   
    44    21    31 1   
    45    21    49 1   
    46    22    30 1   
    47    22    31 1   
    48    22    35 2   
    49    23    24 ar  
    50    23    50 1   
    51    24    25 ar  
    52    24    51 1   
    53    25    26 ar  
    54    25    52 1   
    55    26    27 ar  
    56    26    53 1   
    57    27    37 1   
    58    30    54 1   
    59    31    55 1   
@<TRIPOS>SUBSTRUCTURE
     1 XF7         1 TEMP              0 ****  ****    0 ROOT
