@<TRIPOS>MOLECULE
XF7
   55    59     1     0     0
SMALL
abcg2


@<TRIPOS>ATOM
      1 C1         -20.3430    -4.5220   -27.9790 c          1 XF7       0.563200
      2 C2         -22.6890    -4.2700   -27.3640 cc         1 XF7      -0.071000
      3 C3         -21.7290    -4.2900   -28.3320 cd         1 XF7      -0.167400
      4 C4         -22.0680    -4.0320   -29.7450 ca         1 XF7       0.012200
      5 C5         -22.9240    -2.9810   -30.0610 ca         1 XF7      -0.138000
      6 C6         -18.7800    -4.9720   -26.1950 ca         1 XF7      -0.041400
      7 C7         -23.2610    -2.7670   -31.3890 ca         1 XF7       0.151000
      8 C8         -22.7630    -3.5510   -32.4090 ca         1 XF7      -0.134000
      9 C9         -21.9020    -4.6010   -32.0850 ca         1 XF7       0.153100
     10 C10        -20.4080    -6.2630   -32.9000 c3         1 XF7       0.209900
     11 C11        -19.9180    -6.7230   -34.2380 ca         1 XF7      -0.088300
     12 C12        -21.5600    -4.8450   -30.7600 ca         1 XF7      -0.169000
     13 C13        -17.8640    -3.9320   -26.1270 ca         1 XF7       0.373900
     14 C14        -16.2350    -5.3320   -25.3770 ca         1 XF7       0.348900
     15 C15        -17.0810    -6.4290   -25.4060 ca         1 XF7      -0.160000
     16 C16        -18.3870    -6.2470   -25.8310 ca         1 XF7      -0.065000
     17 C17        -21.0950    -4.7080   -25.6710 cd         1 XF7       0.018600
     18 C18        -22.3970    -4.4840   -25.9940 cc         1 XF7      -0.143000
     19 C24        -23.4490    -4.4790   -24.9700 cc         1 XF7      -0.211200
     20 C26        -23.2590    -3.7370   -23.7310 c          1 XF7       0.592200
     21 C25        -24.6220    -5.1210   -25.1500 cd         1 XF7       0.005600
     22 C30        -25.5260    -4.4520   -23.0290 c          1 XF7       0.616000
     23 C32        -20.1700    -8.0200   -34.6710 ca         1 XF7      -0.084000
     24 C33        -19.7260    -8.4680   -35.9060 ca         1 XF7      -0.114000
     25 C34        -19.0190    -7.6090   -36.7340 ca         1 XF7      -0.091000
     26 C35        -18.7540    -6.3090   -36.3270 ca         1 XF7      -0.109000
     27 C36        -19.2040    -5.8810   -35.0890 ca         1 XF7       0.145000
     28 N19        -20.1200    -4.7180   -26.6140 n          1 XF7      -0.188200
     29 N20        -16.6140    -4.1080   -25.7290 nb         1 XF7      -0.655000
     30 N28        -24.3320    -3.7980   -22.8570 ns         1 XF7      -0.469500
     31 N29        -25.6200    -5.1030   -24.2300 ns         1 XF7      -0.514600
     32 O21        -19.4020    -4.5440   -28.7580 o          1 XF7      -0.529000
     33 O22        -21.4560    -5.3310   -33.1240 os         1 XF7      -0.336100
     34 O27        -22.2660    -3.1000   -23.4380 o          1 XF7      -0.523000
     35 O31        -26.4080    -4.4530   -22.1980 o          1 XF7      -0.543000
     36 CL23       -24.3200    -1.4520   -31.7840 cl         1 XF7      -0.202000
     37 CL24       -18.8450    -4.2570   -34.5960 cl         1 XF7      -0.190000
     38 H1         -23.7180    -4.0860   -27.6500 ha         1 XF7       0.188000
     39 H2         -23.3050    -2.3280   -29.2880 ha         1 XF7       0.130000
     40 H3         -23.0220    -3.3610   -33.4420 ha         1 XF7       0.145000
     41 H4         -20.7690    -7.1190   -32.3220 h1         1 XF7       0.052200
     42 H5         -19.5960    -5.7970   -32.3310 h1         1 XF7       0.052200
     43 H6         -20.9140    -5.6700   -30.5000 ha         1 XF7       0.131000
     44 H7         -18.1620    -2.9250   -26.4010 h4         1 XF7       0.038100
     45 H8         -15.2060    -5.4450   -25.0540 h4         1 XF7       0.025100
     46 H9         -16.7240    -7.4050   -25.1060 ha         1 XF7       0.129000
     47 H10        -19.0840    -7.0740   -25.8770 ha         1 XF7       0.127000
     48 H11        -20.7650    -4.8970   -24.6600 h4         1 XF7       0.220000
     49 H13        -24.8340    -5.6980   -26.0400 h4         1 XF7       0.211000
     50 H14        -20.7240    -8.6880   -34.0230 ha         1 XF7       0.116000
     51 H15        -19.9320    -9.4820   -36.2190 ha         1 XF7       0.119000
     52 H16        -18.6670    -7.9450   -37.7010 ha         1 XF7       0.119000
     53 H17        -18.2000    -5.6360   -36.9670 ha         1 XF7       0.131000
     54 H18        -24.2290    -3.2980   -21.9820 hn         1 XF7       0.346500
     55 H12        -26.4750    -5.6070   -24.4190 hn         1 XF7       0.466000
@<TRIPOS>BOND
     1     1     3 1   
     2     1    28 1   
     3     1    32 2   
     4     2     3 2   
     5     2    18 1   
     6     2    38 1   
     7     3     4 1   
     8     4     5 ar  
     9     4    12 ar  
    10     5     7 ar  
    11     5    39 1   
    12     6    13 ar  
    13     6    16 ar  
    14     6    28 1   
    15     7     8 ar  
    16     7    36 1   
    17     8     9 ar  
    18     8    40 1   
    19     9    12 ar  
    20     9    33 1   
    21    10    11 1   
    22    10    33 1   
    23    10    41 1   
    24    10    42 1   
    25    11    23 ar  
    26    11    27 ar  
    27    12    43 1   
    28    13    29 ar  
    29    13    44 1   
    30    14    15 ar  
    31    14    29 ar  
    32    14    45 1   
    33    15    16 ar  
    34    15    46 1   
    35    16    47 1   
    36    17    18 2   
    37    17    28 1   
    38    17    48 1   
    39    18    19 1   
    40    19    20 1   
    41    19    21 2   
    42    20    30 1   
    43    20    34 2   
    44    21    31 1   
    45    21    49 1   
    46    22    30 1   
    47    22    31 1   
    48    22    35 2   
    49    23    24 ar  
    50    23    50 1   
    51    24    25 ar  
    52    24    51 1   
    53    25    26 ar  
    54    25    52 1   
    55    26    27 ar  
    56    26    53 1   
    57    27    37 1   
    58    30    54 1   
    59    31    55 1   
@<TRIPOS>SUBSTRUCTURE
     1 XF7         1 TEMP              0 ****  ****    0 ROOT
