@<TRIPOS>MOLECULE
XFA
   69    72     1     0     0
SMALL
No Charge or Current Charge


@<TRIPOS>ATOM
      1 C2           2.7690     0.9410    -1.0380 ca         1 XFA      -0.096000
      2 C4           1.2060    -0.9540    -1.0810 ca         1 XFA       0.349000
      3 C6           2.8420    -0.6520    -2.8690 ca         1 XFA       0.153000
      4 C9           0.5730     1.8960     0.9000 ca         1 XFA       0.133100
      5 C14          0.2750     2.3220     2.2050 ca         1 XFA      -0.156000
      6 C13         -0.3670     3.5550     2.4200 ca         1 XFA      -0.076000
      7 C12         -0.7130     4.3640     1.3250 ca         1 XFA       0.077000
      8 C11         -0.4200     3.9440     0.0170 ca         1 XFA      -0.076000
      9 C1           3.3380     0.5010    -2.2440 ca         1 XFA      -0.129000
     10 C3           1.7000     0.2280    -0.4600 ca         1 XFA       0.053100
     11 C5           1.7860    -1.3720    -2.2930 ca         1 XFA      -0.165000
     12 Cl1          3.5510    -1.2030    -4.3800 cl         1 XFA      -0.205000
     13 O8           1.1800     0.6690     0.7390 os         1 XFA      -0.222200
     14 C10          0.2150     2.7070    -0.2000 ca         1 XFA      -0.156000
     15 Cl2         -1.5370     5.8940     1.5910 cl         1 XFA      -0.207000
     16 N16          0.1450    -1.7270    -0.5300 nh         1 XFA      -0.797400
     17 C17         -1.1320    -1.0790    -0.0630 c3         1 XFA       0.171800
     18 C18         -1.3830    -0.9210     1.4760 c          1 XFA       0.608100
     19 N19         -2.4880    -0.1080     1.8720 n          1 XFA      -0.287200
     20 N20         -3.3630     0.4840     0.8780 n3         1 XFA      -0.516600
     21 C21         -2.7250     0.1280     3.3230 c3         1 XFA       0.072300
     22 O22         -0.6760    -1.4700     2.3200 o          1 XFA      -0.556100
     23 C23         -4.7940     0.0480     1.0890 c5         1 XFA       0.213600
     24 C24         -5.5710     1.3010     0.7710 ca         1 XFA      -0.098800
     25 C25         -4.7300     2.3950     0.6970 ca         1 XFA      -0.098800
     26 C26         -3.3020     1.9900     0.9520 c5         1 XFA       0.213600
     27 C27         -6.9540     1.4360     0.5700 ca         1 XFA      -0.089000
     28 C28         -7.4740     2.7160     0.2870 ca         1 XFA      -0.107000
     29 C29         -6.6130     3.8330     0.2120 ca         1 XFA      -0.107000
     30 C30         -5.2280     3.6770     0.4180 ca         1 XFA      -0.089000
     31 C31          0.2670    -3.2150    -0.3660 c3         1 XFA       0.143800
     32 C32          1.7020    -3.8040    -0.1730 c          1 XFA       0.586100
     33 N33          2.1520    -4.6130    -1.2010 ns         1 XFA      -0.517900
     34 C34          3.4690    -5.2630    -1.2380 c3         1 XFA       0.102000
     35 C35          3.5790    -6.4610    -0.2630 c3         1 XFA       0.130800
     36 N36          4.9020    -7.1170    -0.3640 n7         1 XFA      -0.862400
     37 C37          5.0790    -8.3050     0.4950 c3         1 XFA       0.146100
     38 O38          2.3980    -3.5640     0.8070 o          1 XFA      -0.552100
     39 H1           3.1570     1.8320    -0.5490 ha         1 XFA       0.130000
     40 H2           0.5390     1.6920     3.0510 ha         1 XFA       0.137000
     41 H3          -0.6010     3.8800     3.4310 ha         1 XFA       0.130000
     42 H4          -0.6970     4.5700    -0.8280 ha         1 XFA       0.130000
     43 H5           4.1610     1.0510    -2.6940 ha         1 XFA       0.134000
     44 H6           1.4100    -2.2560    -2.7970 ha         1 XFA       0.128000
     45 H7           0.4150     2.3880    -1.2190 ha         1 XFA       0.137000
     46 H8          -1.1990    -0.0720    -0.4940 h1         1 XFA       0.069700
     47 H9          -1.9930    -1.6290    -0.4640 h1         1 XFA       0.069700
     48 H10         -1.8250     0.5620     3.7770 h1         1 XFA       0.044367
     49 H11         -3.5630     0.8170     3.4800 h1         1 XFA       0.044367
     50 H12         -2.9520    -0.8250     3.8180 h1         1 XFA       0.044367
     51 H13         -5.0650    -0.7800     0.4200 h1         1 XFA       0.059200
     52 H14         -5.0080    -0.2680     2.1180 h1         1 XFA       0.059200
     53 H15         -2.9780     2.3660     1.9310 h1         1 XFA       0.059200
     54 H16         -2.6280     2.3980     0.1890 h1         1 XFA       0.059200
     55 H17         -7.6120     0.5720     0.6310 ha         1 XFA       0.119500
     56 H18         -8.5430     2.8430     0.1270 ha         1 XFA       0.115500
     57 H19         -7.0210     4.8180    -0.0060 ha         1 XFA       0.115500
     58 H20         -4.5580     4.5330     0.3630 ha         1 XFA       0.119500
     59 H21         -0.3130    -3.5420     0.5070 h1         1 XFA       0.049700
     60 H22         -0.1800    -3.7070    -1.2400 h1         1 XFA       0.049700
     61 H23          1.5200    -4.7630    -1.9790 hn         1 XFA       0.308500
     62 H24          3.6530    -5.6140    -2.2620 h1         1 XFA       0.059700
     63 H25          4.2390    -4.5180    -0.9950 h1         1 XFA       0.059700
     64 H26          3.4080    -6.1060     0.7630 h1         1 XFA       0.039200
     65 H27          2.7810    -7.1780    -0.5010 h1         1 XFA       0.039200
     66 H28          5.6250    -6.4300    -0.1100 hn         1 XFA       0.410000
     67 H30          6.0790    -8.7380     0.3540 h1         1 XFA       0.029700
     68 H31          4.9690    -8.0410     1.5560 h1         1 XFA       0.029700
     69 H32          4.3360    -9.0770     0.2530 h1         1 XFA       0.029700
@<TRIPOS>BOND
     1     1     9 ar  
     2     1    10 ar  
     3     1    39 1   
     4     2    10 ar  
     5     2    11 ar  
     6     2    16 1   
     7     3     9 ar  
     8     3    11 ar  
     9     3    12 1   
    10     4     5 ar  
    11     4    13 1   
    12     4    14 ar  
    13     5     6 ar  
    14     5    40 1   
    15     6     7 ar  
    16     6    41 1   
    17     7     8 ar  
    18     7    15 1   
    19     8    14 ar  
    20     8    42 1   
    21     9    43 1   
    22    10    13 1   
    23    11    44 1   
    24    14    45 1   
    25    16    17 1   
    26    16    31 1   
    27    17    18 1   
    28    17    46 1   
    29    17    47 1   
    30    18    19 1   
    31    18    22 2   
    32    19    20 1   
    33    19    21 1   
    34    20    23 1   
    35    20    26 1   
    36    21    48 1   
    37    21    49 1   
    38    21    50 1   
    39    23    24 1   
    40    23    51 1   
    41    23    52 1   
    42    24    25 ar  
    43    24    27 ar  
    44    25    26 1   
    45    25    30 ar  
    46    26    53 1   
    47    26    54 1   
    48    27    28 ar  
    49    27    55 1   
    50    28    29 ar  
    51    28    56 1   
    52    29    30 ar  
    53    29    57 1   
    54    30    58 1   
    55    31    32 1   
    56    31    59 1   
    57    31    60 1   
    58    32    33 1   
    59    32    38 2   
    60    33    34 1   
    61    33    61 1   
    62    34    35 1   
    63    34    62 1   
    64    34    63 1   
    65    35    36 1   
    66    35    64 1   
    67    35    65 1   
    68    36    37 1   
    69    36    66 1   
    70    37    67 1   
    71    37    68 1   
    72    37    69 1   
@<TRIPOS>SUBSTRUCTURE
     1 XFA         1 TEMP              0 ****  ****    0 ROOT
