@<TRIPOS>MOLECULE
XFA
   69    72     1     0     0
SMALL
abcg2


@<TRIPOS>ATOM
      1 C2           2.6710     1.4600    -1.3170 ca         1 XFA      -0.096000
      2 C4           1.2900    -0.5400    -1.2260 ca         1 XFA       0.349000
      3 C6           2.8480    -0.1590    -3.0410 ca         1 XFA       0.153000
      4 C9           0.5850     2.2140     0.7280 ca         1 XFA       0.133100
      5 C14          0.4420     2.6540     2.0400 ca         1 XFA      -0.156000
      6 C13         -0.2750     3.8060     2.3120 ca         1 XFA      -0.076000
      7 C12         -0.8470     4.5190     1.2680 ca         1 XFA       0.077000
      8 C11         -0.7010     4.0930    -0.0400 ca         1 XFA      -0.076000
      9 C1           3.2490     1.0550    -2.5090 ca         1 XFA      -0.129000
     10 C3           1.7200     0.6820    -0.6800 ca         1 XFA       0.053100
     11 C5           1.8880    -0.9430    -2.4280 ca         1 XFA      -0.165000
     12 CL1          3.5510    -0.7100    -4.5280 cl         1 XFA      -0.205000
     13 O8           1.2560     1.0440     0.5580 os         1 XFA      -0.222200
     14 C10          0.0140     2.9350    -0.3150 ca         1 XFA      -0.156000
     15 CL2         -1.7830     5.9390     1.6070 cl         1 XFA      -0.207000
     16 N16          0.3550    -1.3320    -0.5970 nh         1 XFA      -0.797400
     17 C17         -0.8560    -0.7730    -0.0530 c3         1 XFA       0.171800
     18 C18         -0.9130    -0.9040     1.4670 c          1 XFA       0.608100
     19 N19         -2.0180    -0.3980     2.0640 n          1 XFA      -0.287200
     20 N20         -2.9500     0.2520     1.2930 n3         1 XFA      -0.516600
     21 C21         -2.1550    -0.4520     3.5100 c3         1 XFA       0.072300
     22 O22         -0.0440    -1.4670     2.1030 o          1 XFA      -0.556100
     23 C23         -4.2680    -0.3750     1.1990 c5         1 XFA       0.213600
     24 C24         -5.1180     0.7740     0.7510 ca         1 XFA      -0.098800
     25 C25         -4.4320     1.9670     0.9400 ca         1 XFA      -0.098800
     26 C26         -3.0820     1.6900     1.5170 c5         1 XFA       0.213600
     27 C27         -6.4010     0.7720     0.2290 ca         1 XFA      -0.089000
     28 C28         -6.9890     1.9890    -0.1000 ca         1 XFA      -0.107000
     29 C29         -6.3020     3.1840     0.0920 ca         1 XFA      -0.107000
     30 C30         -5.0130     3.1810     0.6150 ca         1 XFA      -0.089000
     31 C31          0.3260    -2.7390    -0.8740 c3         1 XFA       0.143800
     32 C32          1.6710    -3.4210    -0.6400 c          1 XFA       0.586100
     33 N33          1.8140    -4.5690    -1.3230 ns         1 XFA      -0.517900
     34 C34          2.9620    -5.4360    -1.1920 c3         1 XFA       0.102000
     35 C35          2.8710    -6.3730     0.0060 c3         1 XFA       0.130800
     36 N36          4.0250    -7.2460     0.0420 n7         1 XFA      -0.862400
     37 C37          3.9750    -8.1960     1.1350 c3         1 XFA       0.146100
     38 O38          2.5180    -2.9700     0.1080 o          1 XFA      -0.552100
     39 H1           2.9900     2.3900    -0.8600 ha         1 XFA       0.130000
     40 H2           0.8850     2.0890     2.8500 ha         1 XFA       0.137000
     41 H3          -0.3920     4.1370     3.3350 ha         1 XFA       0.130000
     42 H4          -1.1540     4.6440    -0.8530 ha         1 XFA       0.130000
     43 H5           4.0000     1.6610    -2.9930 ha         1 XFA       0.134000
     44 H6           1.5930    -1.8710    -2.8980 ha         1 XFA       0.128000
     45 H7           0.1060     2.6100    -1.3420 ha         1 XFA       0.137000
     46 H8          -0.9830     0.2630    -0.3640 h1         1 XFA       0.069700
     47 H9          -1.7210    -1.2880    -0.4850 h1         1 XFA       0.069700
     48 H10         -1.4770     0.2410     4.0110 h1         1 XFA       0.044367
     49 H11         -3.1740    -0.1890     3.7830 h1         1 XFA       0.044367
     50 H12         -1.9570    -1.4560     3.8810 h1         1 XFA       0.044367
     51 H13         -4.2500    -1.2070     0.4910 h1         1 XFA       0.059200
     52 H14         -4.6280    -0.7700     2.1600 h1         1 XFA       0.059200
     53 H15         -3.0460     1.9690     2.5800 h1         1 XFA       0.059200
     54 H16         -2.2810     2.2300     1.0120 h1         1 XFA       0.059200
     55 H17         -6.9390    -0.1550     0.0760 ha         1 XFA       0.119500
     56 H18         -7.9890     2.0070    -0.5130 ha         1 XFA       0.115500
     57 H19         -6.7730     4.1220    -0.1700 ha         1 XFA       0.115500
     58 H20         -4.4770     4.1120     0.7630 ha         1 XFA       0.119500
     59 H21         -0.3810    -3.2050    -0.1840 h1         1 XFA       0.049700
     60 H22         -0.0500    -2.9700    -1.8810 h1         1 XFA       0.049700
     61 H23          1.0560    -4.8860    -1.9050 hn         1 XFA       0.308500
     62 H24          3.0450    -6.0220    -2.1070 h1         1 XFA       0.059700
     63 H25          3.8630    -4.8220    -1.1210 h1         1 XFA       0.059700
     64 H26          2.7490    -5.7810     0.9260 h1         1 XFA       0.039200
     65 H27          1.9730    -6.9900    -0.0900 h1         1 XFA       0.039200
     66 H28          4.8610    -6.6830     0.1380 hn         1 XFA       0.410000
     67 H30          4.8910    -8.7860     1.1550 h1         1 XFA       0.029700
     68 H31          3.8490    -7.7370     2.1260 h1         1 XFA       0.029700
     69 H32          3.1430    -8.8860     0.9880 h1         1 XFA       0.029700
@<TRIPOS>BOND
     1     1     9 ar  
     2     1    10 ar  
     3     1    39 1   
     4     2    10 ar  
     5     2    11 ar  
     6     2    16 1   
     7     3     9 ar  
     8     3    11 ar  
     9     3    12 1   
    10     4     5 ar  
    11     4    13 1   
    12     4    14 ar  
    13     5     6 ar  
    14     5    40 1   
    15     6     7 ar  
    16     6    41 1   
    17     7     8 ar  
    18     7    15 1   
    19     8    14 ar  
    20     8    42 1   
    21     9    43 1   
    22    10    13 1   
    23    11    44 1   
    24    14    45 1   
    25    16    17 1   
    26    16    31 1   
    27    17    18 1   
    28    17    46 1   
    29    17    47 1   
    30    18    19 1   
    31    18    22 2   
    32    19    20 1   
    33    19    21 1   
    34    20    23 1   
    35    20    26 1   
    36    21    48 1   
    37    21    49 1   
    38    21    50 1   
    39    23    24 1   
    40    23    51 1   
    41    23    52 1   
    42    24    25 ar  
    43    24    27 ar  
    44    25    26 1   
    45    25    30 ar  
    46    26    53 1   
    47    26    54 1   
    48    27    28 ar  
    49    27    55 1   
    50    28    29 ar  
    51    28    56 1   
    52    29    30 ar  
    53    29    57 1   
    54    30    58 1   
    55    31    32 1   
    56    31    59 1   
    57    31    60 1   
    58    32    33 1   
    59    32    38 2   
    60    33    34 1   
    61    33    61 1   
    62    34    35 1   
    63    34    62 1   
    64    34    63 1   
    65    35    36 1   
    66    35    64 1   
    67    35    65 1   
    68    36    37 1   
    69    36    66 1   
    70    37    67 1   
    71    37    68 1   
    72    37    69 1   
@<TRIPOS>SUBSTRUCTURE
     1 XFA         1 TEMP              0 ****  ****    0 ROOT
