@<TRIPOS>MOLECULE
XFD
   53    57     1     0     0
SMALL
No Charge or Current Charge


@<TRIPOS>ATOM
      1 C9         -24.1650    -4.8510   -25.3350 ca         1 XFD       0.013200
      2 C3         -18.1410    -3.8300   -26.2430 ca         1 XFD       0.369900
      3 C4         -16.7250    -4.9960   -24.8260 ca         1 XFD       0.349900
      4 N1         -20.5440    -4.4450   -26.5630 n          1 XFD      -0.191200
      5 C2         -19.2250    -4.7170   -26.0110 ca         1 XFD      -0.045400
      6 C19        -23.2010    -2.3760   -29.9840 ca         1 XFD      -0.139000
      7 C20        -23.5180    -1.9900   -31.2950 ca         1 XFD       0.153000
      8 C21        -23.0580    -2.7450   -32.3830 ca         1 XFD      -0.140000
      9 C22        -22.2780    -3.8900   -32.1670 ca         1 XFD       0.157100
     10 C23        -21.0360    -5.7740   -33.1620 c3         1 XFD       0.193600
     11 C24        -20.7590    -6.2640   -34.5770 cx         1 XFD      -0.134700
     12 C25        -21.9600    -4.2790   -30.8470 ca         1 XFD      -0.173000
     13 C7         -21.6750    -4.6940   -25.7680 cc         1 XFD       0.009600
     14 C12        -25.3760    -4.7860   -23.1960 ca         1 XFD      -0.070000
     15 C13        -26.4920    -5.3890   -23.7910 ca         1 XFD      -0.113000
     16 C18        -22.4200    -3.5230   -29.7520 ca         1 XFD       0.013200
     17 C17        -22.0910    -3.9310   -28.3860 cc         1 XFD      -0.166400
     18 C14        -26.4620    -5.7130   -25.1530 ca         1 XFD      -0.085000
     19 C15        -25.3140    -5.4420   -25.9130 ca         1 XFD      -0.109000
     20 C16        -23.1810    -4.1980   -27.5830 cd         1 XFD      -0.065000
     21 C1         -20.6950    -4.0660   -27.9200 c          1 XFD       0.564200
     22 C10        -24.2150    -4.5090   -23.9490 ca         1 XFD      -0.016000
     23 C11        -23.1620    -3.7960   -23.2760 cg         1 XFD       0.320000
     24 C26        -19.6650    -5.6460   -35.4180 cx         1 XFD      -0.121900
     25 C27        -19.5110    -7.0560   -34.8960 cx         1 XFD      -0.121900
     26 C5         -17.7430    -5.9020   -24.4940 ca         1 XFD      -0.161000
     27 C6         -19.0140    -5.7550   -25.0740 ca         1 XFD      -0.058000
     28 C8         -22.9860    -4.6250   -26.2190 cd         1 XFD      -0.162200
     29 N2         -16.9150    -3.9660   -25.6780 nb         1 XFD      -0.654000
     30 N3         -22.3100    -3.2230   -22.7190 n1         1 XFD      -0.450000
     31 Cl1        -24.4930    -0.5540   -31.5740 cl         1 XFD      -0.202000
     32 H1         -18.2600    -2.9560   -26.8820 h4         1 XFD       0.038100
     33 H2         -15.7320    -5.0890   -24.3870 h4         1 XFD       0.025100
     34 H3         -23.5590    -1.7790   -29.1490 ha         1 XFD       0.131000
     35 H4         -23.3050    -2.4420   -33.3960 ha         1 XFD       0.143000
     36 H5         -21.5580    -6.5580   -32.5980 h1         1 XFD       0.041200
     37 H6         -20.0900    -5.5450   -32.6530 h1         1 XFD       0.041200
     38 H7         -21.6690    -6.5600   -35.0950 hc         1 XFD       0.088700
     39 H8         -21.3610    -5.1640   -30.6540 ha         1 XFD       0.129000
     40 H9         -21.4000    -4.9730   -24.7600 h4         1 XFD       0.214000
     41 H10        -25.4210    -4.5160   -22.1410 ha         1 XFD       0.128000
     42 H11        -27.3820    -5.5970   -23.2000 ha         1 XFD       0.123000
     43 H12        -27.3260    -6.1810   -25.6200 ha         1 XFD       0.121000
     44 H13        -25.3120    -5.7350   -26.9600 ha         1 XFD       0.123000
     45 H14        -24.1850    -4.0720   -27.9820 ha         1 XFD       0.196000
     46 H15        -19.0510    -4.8690   -34.9680 hc         1 XFD       0.074450
     47 H16        -19.8560    -5.5160   -36.4810 hc         1 XFD       0.074450
     48 H17        -19.5980    -7.8740   -35.6080 hc         1 XFD       0.074450
     49 H18        -18.7920    -7.2240   -34.0970 hc         1 XFD       0.074450
     50 H19        -17.5440    -6.7060   -23.7910 ha         1 XFD       0.129000
     51 H20        -19.7990    -6.4660   -24.8240 ha         1 XFD       0.129000
     52 O1         -19.7370    -3.8810   -28.6620 o          1 XFD      -0.524000
     53 O2         -21.8510    -4.5950   -33.2730 os         1 XFD      -0.343100
@<TRIPOS>BOND
     1     1    19 ar  
     2     1    22 ar  
     3     1    28 1   
     4     2     5 ar  
     5     2    29 ar  
     6     2    32 1   
     7     3    26 ar  
     8     3    29 ar  
     9     3    33 1   
    10     4     5 1   
    11     4    13 1   
    12     4    21 1   
    13     5    27 ar  
    14     6     7 ar  
    15     6    16 ar  
    16     6    34 1   
    17     7     8 ar  
    18     7    31 1   
    19     8     9 ar  
    20     8    35 1   
    21     9    12 ar  
    22     9    53 1   
    23    10    11 1   
    24    10    36 1   
    25    10    37 1   
    26    10    53 1   
    27    11    24 1   
    28    11    25 1   
    29    11    38 1   
    30    12    16 ar  
    31    12    39 1   
    32    13    28 2   
    33    13    40 1   
    34    14    15 ar  
    35    14    22 ar  
    36    14    41 1   
    37    15    18 ar  
    38    15    42 1   
    39    16    17 1   
    40    17    20 2   
    41    17    21 1   
    42    18    19 ar  
    43    18    43 1   
    44    19    44 1   
    45    20    28 1   
    46    20    45 1   
    47    21    52 2   
    48    22    23 1   
    49    23    30 3   
    50    24    25 1   
    51    24    46 1   
    52    24    47 1   
    53    25    48 1   
    54    25    49 1   
    55    26    27 ar  
    56    26    50 1   
    57    27    51 1   
@<TRIPOS>SUBSTRUCTURE
     1 XFD         1 TEMP              0 ****  ****    0 ROOT
