@<TRIPOS>MOLECULE
XFD
   53    57     1     0     0
SMALL
bcc


@<TRIPOS>ATOM
      1 C9         -24.2030    -4.7340   -25.2470 ca         1 XFD       0.013200
      2 C3         -18.6500    -3.7740   -25.6170 ca         1 XFD       0.435200
      3 C4         -16.9160    -5.1590   -25.1180 ca         1 XFD       0.415200
      4 N1         -20.7280    -4.5950   -26.5820 n          1 XFD      -0.258200
      5 C2         -19.4110    -4.8330   -26.0870 ca         1 XFD      -0.110700
      6 C19        -23.2880    -2.5050   -30.0030 ca         1 XFD      -0.157000
      7 C20        -23.5560    -2.1450   -31.3150 ca         1 XFD       0.061400
      8 C21        -23.0160    -2.8250   -32.3860 ca         1 XFD      -0.158000
      9 C22        -22.1770    -3.9160   -32.1400 ca         1 XFD       0.157100
     10 C23        -20.9060    -5.7060   -33.0740 c3         1 XFD       0.170400
     11 C24        -20.5830    -6.2260   -34.4370 cx         1 XFD      -0.134700
     12 C25        -21.8920    -4.2940   -30.8320 ca         1 XFD      -0.191000
     13 C7         -21.7770    -4.7490   -25.7360 cc         1 XFD       0.059600
     14 C12        -25.3770    -4.3300   -23.1490 ca         1 XFD      -0.088000
     15 C13        -26.4130    -5.1480   -23.5620 ca         1 XFD      -0.131000
     16 C18        -22.4520    -3.5910   -29.7640 ca         1 XFD       0.013200
     17 C17        -22.2090    -4.0120   -28.3710 cc         1 XFD      -0.166400
     18 C14        -26.3580    -5.7460   -24.8150 ca         1 XFD      -0.103000
     19 C15        -25.2660    -5.5410   -25.6440 ca         1 XFD      -0.127000
     20 C16        -23.2470    -4.1700   -27.5040 cd         1 XFD      -0.015000
     21 C1         -20.8460    -4.2200   -27.9240 c          1 XFD       0.706700
     22 C10        -24.2830    -4.1170   -23.9900 ca         1 XFD      -0.016000
     23 C11        -23.2690    -3.2080   -23.5590 cg         1 XFD       0.230800
     24 C26        -19.4490    -5.6280   -35.2100 cx         1 XFD      -0.121900
     25 C27        -19.3150    -7.0010   -34.6270 cx         1 XFD      -0.121900
     26 C5         -17.6040    -6.2780   -25.5610 ca         1 XFD      -0.244300
     27 C6         -18.8850    -6.1130   -26.0640 ca         1 XFD      -0.076000
     28 C8         -23.0550    -4.5380   -26.1470 cd         1 XFD      -0.162200
     29 N2         -17.4240    -3.9320   -25.1410 nb         1 XFD      -0.654000
     30 N3         -22.4760    -2.4580   -23.1890 n1         1 XFD      -0.360800
     31 CL1        -24.5960    -0.7920   -31.6180 cl         1 XFD      -0.110400
     32 H1         -19.0560    -2.7670   -25.6270 h4         1 XFD       0.038100
     33 H2         -15.9110    -5.2580   -24.7250 h4         1 XFD       0.025100
     34 H3         -23.7100    -1.9420   -29.1810 ha         1 XFD       0.149000
     35 H4         -23.2320    -2.5310   -33.4050 ha         1 XFD       0.161000
     36 H5         -21.4570    -6.4560   -32.4960 h1         1 XFD       0.041200
     37 H6         -19.9850    -5.4720   -32.5270 h1         1 XFD       0.041200
     38 H7         -21.4410    -6.5630   -35.0110 hc         1 XFD       0.088700
     39 H8         -21.2520    -5.1390   -30.6260 ha         1 XFD       0.147000
     40 H9         -21.5250    -5.0710   -24.7350 h4         1 XFD       0.164000
     41 H10        -25.4130    -3.8440   -22.1840 ha         1 XFD       0.146000
     42 H11        -27.2610    -5.3120   -22.9130 ha         1 XFD       0.141000
     43 H12        -27.1660    -6.3850   -25.1450 ha         1 XFD       0.139000
     44 H13        -25.2280    -6.0310   -26.6080 ha         1 XFD       0.141000
     45 H14        -24.2580    -4.0080   -27.8580 ha         1 XFD       0.146000
     46 H15        -18.8890    -4.8240   -34.7480 hc         1 XFD       0.074450
     47 H16        -19.5590    -5.5330   -36.2820 hc         1 XFD       0.074450
     48 H17        -19.3390    -7.8510   -35.2970 hc         1 XFD       0.074450
     49 H18        -18.6630    -7.1300   -33.7720 hc         1 XFD       0.074450
     50 H19        -17.1460    -7.2560   -25.5170 ha         1 XFD       0.147000
     51 H20        -19.4610    -6.9540   -26.4270 ha         1 XFD       0.147000
     52 O1         -19.8430    -4.0870   -28.6060 o          1 XFD      -0.599500
     53 O2         -21.6980    -4.5340   -33.2300 os         1 XFD      -0.319900
@<TRIPOS>BOND
     1     1    19 ar  
     2     1    22 ar  
     3     1    28 1   
     4     2     5 ar  
     5     2    29 ar  
     6     2    32 1   
     7     3    26 ar  
     8     3    29 ar  
     9     3    33 1   
    10     4     5 1   
    11     4    13 1   
    12     4    21 1   
    13     5    27 ar  
    14     6     7 ar  
    15     6    16 ar  
    16     6    34 1   
    17     7     8 ar  
    18     7    31 1   
    19     8     9 ar  
    20     8    35 1   
    21     9    12 ar  
    22     9    53 1   
    23    10    11 1   
    24    10    36 1   
    25    10    37 1   
    26    10    53 1   
    27    11    24 1   
    28    11    25 1   
    29    11    38 1   
    30    12    16 ar  
    31    12    39 1   
    32    13    28 2   
    33    13    40 1   
    34    14    15 ar  
    35    14    22 ar  
    36    14    41 1   
    37    15    18 ar  
    38    15    42 1   
    39    16    17 1   
    40    17    20 2   
    41    17    21 1   
    42    18    19 ar  
    43    18    43 1   
    44    19    44 1   
    45    20    28 1   
    46    20    45 1   
    47    21    52 2   
    48    22    23 1   
    49    23    30 3   
    50    24    25 1   
    51    24    46 1   
    52    24    47 1   
    53    25    48 1   
    54    25    49 1   
    55    26    27 ar  
    56    26    50 1   
    57    27    51 1   
@<TRIPOS>SUBSTRUCTURE
     1 XFD         1 TEMP              0 ****  ****    0 ROOT
