@<TRIPOS>MOLECULE
XFH
   52    54     1     0     0
SMALL
bcc


@<TRIPOS>ATOM
      1 N01         -4.1340    -1.3550     0.1370 nb         1 XFH      -0.754000
      2 C02         -5.2150    -2.1090     0.2960 ca         1 XFH       0.664200
      3 N02         -5.0610    -3.2820     0.9790 nv         1 XFH      -0.942500
      4 C03         -6.4820    -1.7170    -0.1740 ca         1 XFH      -0.314300
      5 C04         -6.6110    -0.5050    -0.8190 ca         1 XFH       0.000700
      6 C05         -5.4640     0.2830    -0.9780 ca         1 XFH      -0.298300
      7 C06         -4.2570    -0.1810    -0.4880 ca         1 XFH       0.462600
      8 C07         -7.9360    -0.0280    -1.3290 c3         1 XFH      -0.053800
      9 C08         -3.0010     0.6330    -0.6100 c3         1 XFH      -0.124700
     10 C09         -2.5360     1.1690     0.7510 c3         1 XFH      -0.028100
     11 C11         -0.0090     3.9560     0.2420 ca         1 XFH      -0.128000
     12 C12         -1.2170     3.2830     0.3670 ca         1 XFH      -0.127000
     13 C13         -1.2380     1.9180     0.6440 ca         1 XFH      -0.076300
     14 C14         -0.0250     1.2500     0.7870 ca         1 XFH      -0.120000
     15 C15          1.1950     1.9090     0.6700 ca         1 XFH      -0.080300
     16 C16          1.1910     3.2740     0.3930 ca         1 XFH      -0.127000
     17 C17          2.4850     1.1490     0.8040 c3         1 XFH      -0.028100
     18 C18          2.9720     0.6130    -0.5490 c3         1 XFH      -0.035100
     19 C21          5.4680     0.3570    -0.6220 ca         1 XFH      -0.315300
     20 C22          6.6120    -0.4350    -0.4220 ca         1 XFH       0.665200
     21 N22          7.8610     0.0940    -0.5860 nv         1 XFH      -0.945500
     22 N23          6.5400    -1.7020    -0.0300 nb         1 XFH      -0.754000
     23 C24          5.3380    -2.2400     0.1920 ca         1 XFH       0.466600
     24 C25          4.1620    -1.5300     0.0250 ca         1 XFH      -0.299300
     25 C26          4.2250    -0.1980    -0.3960 ca         1 XFH      -0.001300
     26 HN02        -4.1190    -3.6330     1.0440 hn         1 XFH       0.411800
     27 HN0A        -5.7520    -3.9990     0.8310 hn         1 XFH       0.411800
     28 H03         -7.3390    -2.3640    -0.0300 ha         1 XFH       0.137000
     29 H05         -5.5170     1.2400    -1.4830 ha         1 XFH       0.139000
     30 H07         -8.2780     0.8360    -0.7560 hc         1 XFH       0.046367
     31 H07A        -7.8640     0.2890    -2.3700 hc         1 XFH       0.046367
     32 H07B        -8.7000    -0.7990    -1.2580 hc         1 XFH       0.046367
     33 H08         -2.2080     0.0120    -1.0380 hc         1 XFH       0.055200
     34 H08A        -3.1600     1.4660    -1.2980 hc         1 XFH       0.055200
     35 H09         -3.3120     1.8180     1.1650 hc         1 XFH       0.056700
     36 H09A        -2.4250     0.3300     1.4420 hc         1 XFH       0.056700
     37 H11         -0.0030     5.0180     0.0360 ha         1 XFH       0.129000
     38 H12         -2.1490     3.8250     0.2550 ha         1 XFH       0.128000
     39 H14         -0.0320     0.1870     1.0060 ha         1 XFH       0.131000
     40 H16          2.1300     3.8090     0.3010 ha         1 XFH       0.128000
     41 H17          3.2580     1.7890     1.2350 hc         1 XFH       0.052700
     42 H17A         2.3500     0.3130     1.4950 hc         1 XFH       0.052700
     43 H18          2.1860    -0.0010    -0.9950 hc         1 XFH       0.053200
     44 H18A         3.1460     1.4490    -1.2310 hc         1 XFH       0.053200
     45 H21          5.5660     1.3860    -0.9480 ha         1 XFH       0.137000
     46 HN22         7.9490     0.9110    -1.1670 hn         1 XFH       0.412300
     47 HN2A         8.6110    -0.5690    -0.6940 hn         1 XFH       0.412300
     48 H25          3.2060    -2.0040     0.2160 ha         1 XFH       0.139000
     49 H27          5.9660    -3.8270     1.4910 hc         1 XFH       0.049367
     50 H27A         4.3210    -4.0130     0.8740 hc         1 XFH       0.049367
     51 H27B         5.7070    -4.3190    -0.1740 hc         1 XFH       0.049367
     52 C27          5.3250    -3.6760     0.6220 c3         1 XFH      -0.144400
@<TRIPOS>BOND
     1     1     2 ar  
     2     1     7 ar  
     3     2     3 1   
     4     2     4 ar  
     5     3    26 1   
     6     3    27 1   
     7     4     5 ar  
     8     4    28 1   
     9     5     6 ar  
    10     5     8 1   
    11     6     7 ar  
    12     6    29 1   
    13     7     9 1   
    14     8    30 1   
    15     8    31 1   
    16     8    32 1   
    17     9    10 1   
    18     9    33 1   
    19     9    34 1   
    20    10    13 1   
    21    10    35 1   
    22    10    36 1   
    23    11    12 ar  
    24    11    16 ar  
    25    11    37 1   
    26    12    13 ar  
    27    12    38 1   
    28    13    14 ar  
    29    14    15 ar  
    30    14    39 1   
    31    15    16 ar  
    32    15    17 1   
    33    16    40 1   
    34    17    18 1   
    35    17    41 1   
    36    17    42 1   
    37    18    25 1   
    38    18    43 1   
    39    18    44 1   
    40    19    20 ar  
    41    19    25 ar  
    42    19    45 1   
    43    20    21 1   
    44    20    22 ar  
    45    21    46 1   
    46    21    47 1   
    47    22    23 ar  
    48    23    24 ar  
    49    23    52 1   
    50    24    25 ar  
    51    24    48 1   
    52    49    52 1   
    53    50    52 1   
    54    51    52 1   
@<TRIPOS>SUBSTRUCTURE
     1 XFH         1 TEMP              0 ****  ****    0 ROOT
