@<TRIPOS>MOLECULE
XFH
   52    54     1     0     0
SMALL
No Charge or Current Charge


@<TRIPOS>ATOM
      1 N01         -4.2490    -1.6600    -0.2570 nb         1 XFH      -0.754000
      2 C02         -5.4010    -2.3000    -0.1210 ca         1 XFH       0.598900
      3 N02         -5.2050    -3.5960     0.1260 nv         1 XFH      -1.052900
      4 C03         -6.6640    -1.7160    -0.2330 ca         1 XFH      -0.231000
      5 C04         -6.7430    -0.3420    -0.5050 ca         1 XFH       0.000700
      6 C05         -5.5330     0.3570    -0.6460 ca         1 XFH      -0.215000
      7 C06         -4.3130    -0.3350    -0.5180 ca         1 XFH       0.397300
      8 C07         -8.0820     0.3640    -0.6330 c3         1 XFH      -0.053800
      9 C08         -2.9880     0.3980    -0.6610 c3         1 XFH      -0.124700
     10 C09         -2.5880     1.1530     0.6250 c3         1 XFH      -0.028100
     11 C11         -0.0600     3.9520    -0.0680 ca         1 XFH      -0.110000
     12 C12         -1.2740     3.2620     0.0890 ca         1 XFH      -0.109000
     13 C13         -1.2740     1.9050     0.4620 ca         1 XFH      -0.076300
     14 C14         -0.0490     1.2450     0.6750 ca         1 XFH      -0.102000
     15 C15          1.1710     1.9310     0.5210 ca         1 XFH      -0.080300
     16 C16          1.1600     3.2890     0.1470 ca         1 XFH      -0.109000
     17 C17          2.4920     1.2070     0.7460 c3         1 XFH      -0.028100
     18 C18          2.9770     0.4770    -0.5230 c3         1 XFH      -0.035100
     19 C21          5.5240     0.3570    -0.6030 ca         1 XFH      -0.232000
     20 C22          6.6960    -0.3650    -0.3660 ca         1 XFH       0.599900
     21 N22          7.9180     0.1060    -0.6260 nv         1 XFH      -1.055900
     22 N23          6.7510    -1.5940     0.1250 nb         1 XFH      -0.754000
     23 C24          5.5740    -2.1830     0.4260 ca         1 XFH       0.401300
     24 C25          4.3320    -1.5500     0.2290 ca         1 XFH      -0.216000
     25 C26          4.2960    -0.2480    -0.2990 ca         1 XFH      -0.001300
     26 HN02        -4.2640    -3.9230    -0.0530 hn         1 XFH       0.467000
     27 HN0A        -5.9600    -4.2370    -0.0950 hn         1 XFH       0.467000
     28 H03         -7.5610    -2.3150    -0.1080 ha         1 XFH       0.119000
     29 H05         -5.5330     1.4230    -0.8530 ha         1 XFH       0.121000
     30 H07         -8.4010     0.7740     0.3330 hc         1 XFH       0.046367
     31 H07A        -8.0280     1.1930    -1.3480 hc         1 XFH       0.046367
     32 H07B        -8.8640    -0.3220    -0.9810 hc         1 XFH       0.046367
     33 H08         -2.1880    -0.3030    -0.9290 hc         1 XFH       0.055200
     34 H08A        -3.0540     1.1150    -1.4890 hc         1 XFH       0.055200
     35 H09         -3.3910     1.8480     0.9000 hc         1 XFH       0.056700
     36 H09A        -2.5110     0.4350     1.4520 hc         1 XFH       0.056700
     37 H11         -0.0640     5.0000    -0.3580 ha         1 XFH       0.111000
     38 H12         -2.2130     3.7830    -0.0830 ha         1 XFH       0.110000
     39 H14         -0.0440     0.1950     0.9570 ha         1 XFH       0.113000
     40 H16          2.0950     3.8290     0.0200 ha         1 XFH       0.110000
     41 H17          3.2640     1.9160     1.0680 hc         1 XFH       0.052700
     42 H17A         2.3870     0.4790     1.5600 hc         1 XFH       0.052700
     43 H18          2.2080    -0.2360    -0.8440 hc         1 XFH       0.053200
     44 H18A         3.0800     1.2050    -1.3370 hc         1 XFH       0.053200
     45 H21          5.5680     1.3620    -1.0100 ha         1 XFH       0.119000
     46 HN22         7.9930     0.8600    -1.3000 hn         1 XFH       0.467500
     47 HN2A         8.6550    -0.5880    -0.6330 hn         1 XFH       0.467500
     48 H25          3.4110    -2.0670     0.4840 ha         1 XFH       0.121000
     49 H27          6.4960    -3.6980     1.6810 hc         1 XFH       0.049367
     50 H27A         4.7400    -3.8520     1.5360 hc         1 XFH       0.049367
     51 H27B         5.7820    -4.3220     0.1820 hc         1 XFH       0.049367
     52 C27          5.6530    -3.5900     0.9880 c3         1 XFH      -0.144400
@<TRIPOS>BOND
     1     1     2 ar  
     2     1     7 ar  
     3     2     3 1   
     4     2     4 ar  
     5     3    26 1   
     6     3    27 1   
     7     4     5 ar  
     8     4    28 1   
     9     5     6 ar  
    10     5     8 1   
    11     6     7 ar  
    12     6    29 1   
    13     7     9 1   
    14     8    30 1   
    15     8    31 1   
    16     8    32 1   
    17     9    10 1   
    18     9    33 1   
    19     9    34 1   
    20    10    13 1   
    21    10    35 1   
    22    10    36 1   
    23    11    12 ar  
    24    11    16 ar  
    25    11    37 1   
    26    12    13 ar  
    27    12    38 1   
    28    13    14 ar  
    29    14    15 ar  
    30    14    39 1   
    31    15    16 ar  
    32    15    17 1   
    33    16    40 1   
    34    17    18 1   
    35    17    41 1   
    36    17    42 1   
    37    18    25 1   
    38    18    43 1   
    39    18    44 1   
    40    19    20 ar  
    41    19    25 ar  
    42    19    45 1   
    43    20    21 1   
    44    20    22 ar  
    45    21    46 1   
    46    21    47 1   
    47    22    23 ar  
    48    23    24 ar  
    49    23    52 1   
    50    24    25 ar  
    51    24    48 1   
    52    49    52 1   
    53    50    52 1   
    54    51    52 1   
@<TRIPOS>SUBSTRUCTURE
     1 XFH         1 TEMP              0 ****  ****    0 ROOT
