@<TRIPOS>MOLECULE
XFI
   85    88     1     0     0
SMALL
No Charge or Current Charge


@<TRIPOS>ATOM
      1 C1          -6.1880    -1.8340     1.7370 c3         1 XFI      -0.086100
      2 C2          -6.1730    -0.7480     0.6360 c3         1 XFI       0.102500
      3 N3          -4.8640    -0.0130     0.6380 n7         1 XFI      -0.859400
      4 C4          -3.6790    -0.7680     0.1450 c3         1 XFI       0.133800
      5 C5          -2.3850     0.0590     0.3800 c3         1 XFI       0.161300
      6 O6          -2.4700     0.6150     1.7020 oh         1 XFI      -0.645000
      7 C7          -1.0510    -0.7210     0.1720 c3         1 XFI       0.077700
      8 C8          -0.8530    -1.9510     1.1090 c3         1 XFI      -0.054100
      9 C9           0.5120    -2.6170     0.9450 ca         1 XFI      -0.084300
     10 C10          1.5760    -2.2880     1.8090 ca         1 XFI      -0.101500
     11 C11          2.8440    -2.8690     1.6290 ca         1 XFI      -0.105000
     12 C12          3.0530    -3.7890     0.5870 ca         1 XFI      -0.106000
     13 C13          1.9950    -4.1260    -0.2730 ca         1 XFI      -0.105000
     14 C14          0.7280    -3.5410    -0.0950 ca         1 XFI      -0.101500
     15 N15          0.0930     0.1950     0.2980 ns         1 XFI      -0.486900
     16 C16          1.2170     0.1710    -0.5000 c          1 XFI       0.616700
     17 O17          1.2590    -0.4820    -1.5340 o          1 XFI      -0.587100
     18 C18          2.3910     0.9920    -0.0200 ca         1 XFI      -0.139600
     19 C19          2.2660     1.9760     0.9860 ca         1 XFI      -0.086000
     20 C20          3.3950     2.6900     1.4140 ca         1 XFI      -0.103000
     21 C21          4.6590     2.4280     0.8590 ca         1 XFI      -0.102000
     22 C22          4.8170     1.4480    -0.1490 ca         1 XFI       0.277000
     23 C23          3.6670     0.7510    -0.5760 ca         1 XFI      -0.048000
     24 N24          6.0640     1.0810    -0.7250 nh         1 XFI      -0.827100
     25 C25          6.3890    -0.2880    -0.8170 ca         1 XFI       0.252000
     26 C26          6.7890    -0.8580    -2.0410 ca         1 XFI      -0.096000
     27 C27          7.0780    -2.2320    -2.1300 ca         1 XFI      -0.109000
     28 C28          6.9620    -3.0500    -0.9930 ca         1 XFI      -0.102000
     29 C29          6.5520    -2.4930     0.2290 ca         1 XFI      -0.109000
     30 C30          6.2620    -1.1200     0.3140 ca         1 XFI      -0.096000
     31 S31          7.3970     2.1930    -0.7780 s6         1 XFI       1.234100
     32 C32          8.2080     1.9910     0.8010 c3         1 XFI      -0.371100
     33 O33          8.3140     1.7230    -1.8220 o          1 XFI      -0.524500
     34 O34          6.8400     3.5460    -0.8580 o          1 XFI      -0.524500
     35 C35         -7.4180     0.2000     0.7890 c          1 XFI       0.592100
     36 O36         -7.6360     0.8740     1.7900 o          1 XFI      -0.597100
     37 N37         -8.2600     0.2350    -0.3050 ns         1 XFI      -0.503900
     38 C38         -9.4970     1.0190    -0.4070 c6         1 XFI       0.111700
     39 C39         -9.8400     1.2780    -1.8970 c6         1 XFI      -0.089900
     40 C40        -11.1610     2.0740    -2.0430 c6         1 XFI      -0.071400
     41 C41        -12.3320     1.3480    -1.3380 c6         1 XFI      -0.077400
     42 C42        -11.9990     1.0620     0.1460 c6         1 XFI      -0.071400
     43 C43        -10.6720     0.2730     0.2800 c6         1 XFI      -0.089900
     44 H11C        -6.0030    -1.3920     2.7230 hc         1 XFI       0.042033
     45 H12C        -7.1650    -2.3330     1.7640 hc         1 XFI       0.042033
     46 H13C        -5.4300    -2.6030     1.5540 hc         1 XFI       0.042033
     47 H2          -6.2910    -1.2580    -0.3300 h1         1 XFI       0.031700
     48 H3          -4.9720     0.8230     0.0430 hn         1 XFI       0.447000
     49 H41C        -3.5920    -1.7210     0.6800 h1         1 XFI       0.032700
     50 H42C        -3.7770    -0.9970    -0.9250 h1         1 XFI       0.032700
     51 H5          -2.3980     0.8770    -0.3540 h1         1 XFI       0.088700
     52 H6          -3.4420     0.5790     1.8800 ho         1 XFI       0.439000
     53 H7          -1.0680    -1.1010    -0.8590 h1         1 XFI       0.089700
     54 H81C        -0.9860    -1.6360     2.1510 hc         1 XFI       0.047700
     55 H82C        -1.6380    -2.6900     0.9140 hc         1 XFI       0.047700
     56 H15          0.1360     0.7700     1.1290 hn         1 XFI       0.318500
     57 H10          1.4260    -1.5700     2.6120 ha         1 XFI       0.106500
     58 H14         -0.0820    -3.7990    -0.7740 ha         1 XFI       0.106500
     59 H11          3.6630    -2.6050     2.2940 ha         1 XFI       0.114500
     60 H12          4.0330    -4.2390     0.4460 ha         1 XFI       0.111000
     61 H13          2.1560    -4.8370    -1.0810 ha         1 XFI       0.114500
     62 H19          1.3040     2.2050     1.4380 ha         1 XFI       0.125000
     63 H23          3.7750    -0.0070    -1.3460 ha         1 XFI       0.147000
     64 H20          3.2930     3.4460     2.1890 ha         1 XFI       0.121000
     65 H21          5.5010     2.9890     1.2420 ha         1 XFI       0.111000
     66 H26          6.8630    -0.2360    -2.9280 ha         1 XFI       0.129000
     67 H30          5.9420    -0.6970     1.2620 ha         1 XFI       0.129000
     68 H27          7.3870    -2.6620    -3.0800 ha         1 XFI       0.119500
     69 H28          7.1840    -4.1130    -1.0610 ha         1 XFI       0.118000
     70 H29          6.4570    -3.1240     1.1100 ha         1 XFI       0.119500
     71 H321         8.5540     0.9540     0.8580 h1         1 XFI       0.102033
     72 H322         9.0500     2.6890     0.8260 h1         1 XFI       0.102033
     73 H323         7.4900     2.2080     1.5950 h1         1 XFI       0.102033
     74 H37         -7.9990    -0.3450    -1.0920 hn         1 XFI       0.309500
     75 H38         -9.3420     1.9870     0.0940 h1         1 XFI       0.077700
     76 H391        -9.0220     1.8330    -2.3760 hc         1 XFI       0.044700
     77 H392        -9.9270     0.3230    -2.4340 hc         1 XFI       0.044700
     78 H431       -10.7910    -0.7260    -0.1620 hc         1 XFI       0.044700
     79 H432       -10.4460     0.1180     1.3440 hc         1 XFI       0.044700
     80 H401       -11.0370     3.0790    -1.6160 hc         1 XFI       0.043700
     81 H402       -11.3960     2.2150    -3.1070 hc         1 XFI       0.043700
     82 H411       -13.2450     1.9550    -1.4060 hc         1 XFI       0.040200
     83 H412       -12.5470     0.4030    -1.8570 hc         1 XFI       0.040200
     84 H421       -11.9230     2.0100     0.6980 hc         1 XFI       0.043700
     85 H422       -12.8180     0.4960     0.6100 hc         1 XFI       0.043700
@<TRIPOS>BOND
     1     1     2 1   
     2     1    44 1   
     3     1    45 1   
     4     1    46 1   
     5     2     3 1   
     6     2    35 1   
     7     2    47 1   
     8     3     4 1   
     9     3    48 1   
    10     4     5 1   
    11     4    49 1   
    12     4    50 1   
    13     5     6 1   
    14     5     7 1   
    15     5    51 1   
    16     6    52 1   
    17     7     8 1   
    18     7    15 1   
    19     7    53 1   
    20     8     9 1   
    21     8    54 1   
    22     8    55 1   
    23     9    10 ar  
    24     9    14 ar  
    25    10    11 ar  
    26    10    57 1   
    27    11    12 ar  
    28    11    59 1   
    29    12    13 ar  
    30    12    60 1   
    31    13    14 ar  
    32    13    61 1   
    33    14    58 1   
    34    15    16 1   
    35    15    56 1   
    36    16    17 2   
    37    16    18 1   
    38    18    19 ar  
    39    18    23 ar  
    40    19    20 ar  
    41    19    62 1   
    42    20    21 ar  
    43    20    64 1   
    44    21    22 ar  
    45    21    65 1   
    46    22    23 ar  
    47    22    24 1   
    48    23    63 1   
    49    24    25 1   
    50    24    31 1   
    51    25    26 ar  
    52    25    30 ar  
    53    26    27 ar  
    54    26    66 1   
    55    27    28 ar  
    56    27    68 1   
    57    28    29 ar  
    58    28    69 1   
    59    29    30 ar  
    60    29    70 1   
    61    30    67 1   
    62    31    32 1   
    63    31    33 2   
    64    31    34 2   
    65    32    71 1   
    66    32    72 1   
    67    32    73 1   
    68    35    36 2   
    69    35    37 1   
    70    37    38 1   
    71    37    74 1   
    72    38    39 1   
    73    38    43 1   
    74    38    75 1   
    75    39    40 1   
    76    39    76 1   
    77    39    77 1   
    78    40    41 1   
    79    40    80 1   
    80    40    81 1   
    81    41    42 1   
    82    41    82 1   
    83    41    83 1   
    84    42    43 1   
    85    42    84 1   
    86    42    85 1   
    87    43    78 1   
    88    43    79 1   
@<TRIPOS>SUBSTRUCTURE
     1 XFI         1 TEMP              0 ****  ****    0 ROOT
