@<TRIPOS>MOLECULE
XFI
   85    88     1     0     0
SMALL
bcc


@<TRIPOS>ATOM
      1 C1          -6.2880    -1.3850     1.3240 c3         1 XFI      -0.086100
      2 C2          -5.9620    -0.5190     0.1070 c3         1 XFI       0.102500
      3 N3          -4.7260     0.2040     0.3280 n7         1 XFI      -0.804200
      4 C4          -3.5350    -0.5610     0.0320 c3         1 XFI       0.133800
      5 C5          -2.2920     0.1950     0.4870 c3         1 XFI       0.138100
      6 O6          -2.2150     0.3260     1.8890 oh         1 XFI      -0.582800
      7 C7          -1.0070    -0.4040    -0.0960 c3         1 XFI       0.077700
      8 C8          -0.7900    -1.8840     0.2730 c3         1 XFI      -0.054100
      9 C9           0.5080    -2.3990    -0.2810 ca         1 XFI      -0.084300
     10 C10          1.6830    -2.3220     0.4620 ca         1 XFI      -0.119500
     11 C11          2.9010    -2.6960    -0.0900 ca         1 XFI      -0.123000
     12 C12          2.9560    -3.1720    -1.3920 ca         1 XFI      -0.124000
     13 C13          1.7870    -3.2750    -2.1360 ca         1 XFI      -0.123000
     14 C14          0.5760    -2.8850    -1.5840 ca         1 XFI      -0.119500
     15 N15          0.1230     0.3840     0.3440 ns         1 XFI      -0.553900
     16 C16          1.1690     0.6950    -0.4440 c          1 XFI       0.683700
     17 O17          1.1810     0.5450    -1.6550 o          1 XFI      -0.587100
     18 C18          2.3640     1.2300     0.2790 ca         1 XFI      -0.139600
     19 C19          2.2680     2.0770     1.3790 ca         1 XFI      -0.104000
     20 C20          3.4190     2.5210     2.0120 ca         1 XFI      -0.121000
     21 C21          4.6670     2.1050     1.5730 ca         1 XFI      -0.120000
     22 C22          4.7630     1.2700     0.4650 ca         1 XFI       0.138600
     23 C23          3.6150     0.8510    -0.1900 ca         1 XFI      -0.066000
     24 N24          6.0140     0.7780     0.0000 nh         1 XFI      -0.550300
     25 C25          6.2910    -0.6150     0.1160 ca         1 XFI       0.113600
     26 C26          6.3980    -1.4110    -1.0180 ca         1 XFI      -0.114000
     27 C27          6.6410    -2.7710    -0.8810 ca         1 XFI      -0.127000
     28 C28          6.7570    -3.3380     0.3810 ca         1 XFI      -0.120000
     29 C29          6.6380    -2.5410     1.5130 ca         1 XFI      -0.127000
     30 C30          6.4100    -1.1790     1.3820 ca         1 XFI      -0.114000
     31 S31          7.2080     1.8200    -0.5000 s6         1 XFI       1.264900
     32 C32          8.3030     1.9890     0.8890 c3         1 XFI      -0.260300
     33 O33          7.9540     1.1660    -1.5620 o          1 XFI      -0.595300
     34 O34          6.5580     3.0930    -0.7550 o          1 XFI      -0.595300
     35 C35         -7.0880     0.4810    -0.1660 c          1 XFI       0.659100
     36 O36         -6.8920     1.6900    -0.1770 o          1 XFI      -0.597100
     37 N37         -8.2860    -0.0660    -0.4120 ns         1 XFI      -0.570900
     38 C38         -9.4940     0.7070    -0.6390 c6         1 XFI       0.111700
     39 C39        -10.4600    -0.0870    -1.5120 c6         1 XFI      -0.089900
     40 C40        -11.7440     0.6980    -1.7660 c6         1 XFI      -0.071400
     41 C41        -12.4050     1.1250    -0.4590 c6         1 XFI      -0.077400
     42 C42        -11.4360     1.9150     0.4140 c6         1 XFI      -0.071400
     43 C43        -10.1590     1.1230     0.6740 c6         1 XFI      -0.089900
     44 H11C        -6.4480    -0.7630     2.2050 hc         1 XFI       0.042033
     45 H12C        -7.1700    -2.0060     1.1730 hc         1 XFI       0.042033
     46 H13C        -5.4620    -2.0630     1.5390 hc         1 XFI       0.042033
     47 H2          -5.9040    -1.1750    -0.7780 h1         1 XFI       0.031700
     48 H3          -4.7270     1.0510    -0.2260 hn         1 XFI       0.391800
     49 H41C        -3.5890    -1.5230     0.5510 h1         1 XFI       0.032700
     50 H42C        -3.4340    -0.8020    -1.0390 h1         1 XFI       0.032700
     51 H5          -2.3580     1.2190     0.1010 h1         1 XFI       0.088700
     52 H6          -2.4460    -0.5150     2.2980 ho         1 XFI       0.400000
     53 H7          -1.0670    -0.3200    -1.1820 h1         1 XFI       0.089700
     54 H81C        -0.8010    -1.9970     1.3610 hc         1 XFI       0.047700
     55 H82C        -1.6230    -2.4730    -0.1190 hc         1 XFI       0.047700
     56 H15          0.2480     0.4470     1.3430 hn         1 XFI       0.318500
     57 H10          1.6480    -1.9590     1.4830 ha         1 XFI       0.124500
     58 H14         -0.3310    -2.9510    -2.1750 ha         1 XFI       0.124500
     59 H11          3.8090    -2.6080     0.4940 ha         1 XFI       0.132500
     60 H12          3.9050    -3.4620    -1.8230 ha         1 XFI       0.129000
     61 H13          1.8200    -3.6520    -3.1510 ha         1 XFI       0.132500
     62 H19          1.3020     2.4100     1.7400 ha         1 XFI       0.143000
     63 H23          3.6970     0.2000    -1.0500 ha         1 XFI       0.165000
     64 H20          3.3450     3.1840     2.8630 ha         1 XFI       0.139000
     65 H21          5.5520     2.4260     2.1060 ha         1 XFI       0.129000
     66 H26          6.2840    -0.9740    -2.0000 ha         1 XFI       0.147000
     67 H30          6.3170    -0.5550     2.2630 ha         1 XFI       0.147000
     68 H27          6.7280    -3.3900    -1.7640 ha         1 XFI       0.137500
     69 H28          6.9370    -4.4000     0.4830 ha         1 XFI       0.136000
     70 H29          6.7270    -2.9780     2.4990 ha         1 XFI       0.137500
     71 H321         8.6670     1.0070     1.1830 h1         1 XFI       0.102033
     72 H322         9.1390     2.6140     0.5800 h1         1 XFI       0.102033
     73 H323         7.7770     2.4590     1.7160 h1         1 XFI       0.102033
     74 H37         -8.3800    -1.0680    -0.3650 hn         1 XFI       0.309500
     75 H38         -9.2060     1.6120    -1.1830 h1         1 XFI       0.077700
     76 H391        -9.9770    -0.3450    -2.4580 hc         1 XFI       0.044700
     77 H392       -10.7060    -1.0320    -1.0130 hc         1 XFI       0.044700
     78 H431       -10.3940     0.2230     1.2530 hc         1 XFI       0.044700
     79 H432        -9.4580     1.7120     1.2700 hc         1 XFI       0.044700
     80 H401       -11.5120     1.5850    -2.3640 hc         1 XFI       0.043700
     81 H402       -12.4320     0.0950    -2.3610 hc         1 XFI       0.043700
     82 H411       -13.3010     1.7160    -0.6650 hc         1 XFI       0.040200
     83 H412       -12.7360     0.2340     0.0850 hc         1 XFI       0.040200
     84 H421       -11.1830     2.8580    -0.0820 hc         1 XFI       0.043700
     85 H422       -11.9080     2.1820     1.3630 hc         1 XFI       0.043700
@<TRIPOS>BOND
     1     1     2 1   
     2     1    44 1   
     3     1    45 1   
     4     1    46 1   
     5     2     3 1   
     6     2    35 1   
     7     2    47 1   
     8     3     4 1   
     9     3    48 1   
    10     4     5 1   
    11     4    49 1   
    12     4    50 1   
    13     5     6 1   
    14     5     7 1   
    15     5    51 1   
    16     6    52 1   
    17     7     8 1   
    18     7    15 1   
    19     7    53 1   
    20     8     9 1   
    21     8    54 1   
    22     8    55 1   
    23     9    10 ar  
    24     9    14 ar  
    25    10    11 ar  
    26    10    57 1   
    27    11    12 ar  
    28    11    59 1   
    29    12    13 ar  
    30    12    60 1   
    31    13    14 ar  
    32    13    61 1   
    33    14    58 1   
    34    15    16 1   
    35    15    56 1   
    36    16    17 2   
    37    16    18 1   
    38    18    19 ar  
    39    18    23 ar  
    40    19    20 ar  
    41    19    62 1   
    42    20    21 ar  
    43    20    64 1   
    44    21    22 ar  
    45    21    65 1   
    46    22    23 ar  
    47    22    24 1   
    48    23    63 1   
    49    24    25 1   
    50    24    31 1   
    51    25    26 ar  
    52    25    30 ar  
    53    26    27 ar  
    54    26    66 1   
    55    27    28 ar  
    56    27    68 1   
    57    28    29 ar  
    58    28    69 1   
    59    29    30 ar  
    60    29    70 1   
    61    30    67 1   
    62    31    32 1   
    63    31    33 2   
    64    31    34 2   
    65    32    71 1   
    66    32    72 1   
    67    32    73 1   
    68    35    36 2   
    69    35    37 1   
    70    37    38 1   
    71    37    74 1   
    72    38    39 1   
    73    38    43 1   
    74    38    75 1   
    75    39    40 1   
    76    39    76 1   
    77    39    77 1   
    78    40    41 1   
    79    40    80 1   
    80    40    81 1   
    81    41    42 1   
    82    41    82 1   
    83    41    83 1   
    84    42    43 1   
    85    42    84 1   
    86    42    85 1   
    87    43    78 1   
    88    43    79 1   
@<TRIPOS>SUBSTRUCTURE
     1 XFI         1 TEMP              0 ****  ****    0 ROOT
