@<TRIPOS>MOLECULE
XFJ
   51    53     1     0     0
SMALL
No Charge or Current Charge


@<TRIPOS>ATOM
      1 N01          4.2010    -1.7150     0.1360 nb         1 XFJ      -0.753500
      2 C02          5.3660    -2.3370     0.0360 ca         1 XFJ       0.600400
      3 N02          5.2030    -3.6160    -0.3070 nv         1 XFJ      -1.054400
      4 C03          6.6130    -1.7530     0.2690 ca         1 XFJ      -0.231500
      5 C04          6.6580    -0.3990     0.6320 ca         1 XFJ       0.001200
      6 C05          5.4330     0.2790     0.7430 ca         1 XFJ      -0.214500
      7 C06          4.2320    -0.4110     0.4890 ca         1 XFJ       0.396800
      8 C07          7.9770     0.3050     0.9020 c3         1 XFJ      -0.053800
      9 C08          2.8920     0.3000     0.5930 c3         1 XFJ      -0.124200
     10 C09          2.5570     1.1180    -0.6730 c3         1 XFJ      -0.023100
     11 N11          0.0270     3.9310    -0.1800 nb         1 XFJ      -0.665000
     12 C12          1.1810     3.2350    -0.3000 ca         1 XFJ       0.334400
     13 C13          1.2260     1.8480    -0.5520 ca         1 XFJ      -0.129300
     14 C14          0.0120     1.1500    -0.6860 ca         1 XFJ      -0.072000
     15 C15         -1.1940     1.8630    -0.5630 ca         1 XFJ      -0.129300
     16 C16         -1.1350     3.2500    -0.3100 ca         1 XFJ       0.334400
     17 C17         -2.5330     1.1510    -0.6960 c3         1 XFJ      -0.023100
     18 C18         -2.9160     0.3880     0.5910 c3         1 XFJ      -0.124200
     19 N21         -5.3310     0.2850     0.9710 nb         1 XFJ      -0.753500
     20 C22         -6.4910    -0.3430     0.8580 ca         1 XFJ       0.600400
     21 N22         -7.4810     0.3740     1.3930 nv         1 XFJ      -1.054400
     22 C23         -6.6790    -1.5850     0.2480 ca         1 XFJ      -0.231500
     23 C24         -5.5610    -2.2400    -0.2890 ca         1 XFJ       0.001200
     24 C25         -4.3190    -1.5950    -0.1730 ca         1 XFJ      -0.214500
     25 C26         -4.2460    -0.3400     0.4610 ca         1 XFJ       0.396800
     26 HN02         4.2550    -3.9590    -0.2120 hn         1 XFJ       0.467750
     27 HN0A         5.9470    -4.2640    -0.0770 hn         1 XFJ       0.467750
     28 H03          7.5230    -2.3370     0.1680 ha         1 XFJ       0.119000
     29 H05          5.4070     1.3290     1.0230 ha         1 XFJ       0.121500
     30 H07          7.9300     1.3630     0.6170 hc         1 XFJ       0.046700
     31 H07A         8.2360     0.2550     1.9660 hc         1 XFJ       0.046700
     32 H07B         8.7970    -0.1520     0.3360 hc         1 XFJ       0.046700
     33 H08          2.0890    -0.4240     0.7780 hc         1 XFJ       0.056200
     34 H08A         2.9010     0.9720     1.4600 hc         1 XFJ       0.056200
     35 H09          3.3670     1.8330    -0.8650 hc         1 XFJ       0.057700
     36 H09A         2.5350     0.4440    -1.5390 hc         1 XFJ       0.057700
     37 H12          2.1010     3.8090    -0.1880 h4         1 XFJ       0.017600
     38 H14          0.0060     0.0790    -0.8800 ha         1 XFJ       0.119000
     39 H16         -2.0480     3.8350    -0.2060 h4         1 XFJ       0.017600
     40 H17         -3.3270     1.8700    -0.9340 hc         1 XFJ       0.057700
     41 H17A        -2.4980     0.4460    -1.5360 hc         1 XFJ       0.057700
     42 H18         -2.1270    -0.3350     0.8290 hc         1 XFJ       0.056200
     43 H18A        -2.9460     1.0930     1.4300 hc         1 XFJ       0.056200
     44 HN22        -7.2470     1.3410     1.5810 hn         1 XFJ       0.467750
     45 HN2A        -8.4240     0.1890     1.0710 hn         1 XFJ       0.467750
     46 H23         -7.6680    -2.0290     0.1950 ha         1 XFJ       0.119000
     47 H25         -3.4190    -2.0550    -0.5700 ha         1 XFJ       0.121500
     48 H27         -4.9510    -3.7090    -1.7690 hc         1 XFJ       0.046700
     49 H27A        -5.5240    -4.4060    -0.2440 hc         1 XFJ       0.046700
     50 H27B        -6.6820    -3.7320    -1.4040 hc         1 XFJ       0.046700
     51 C27         -5.6870    -3.5950    -0.9640 c3         1 XFJ      -0.053800
@<TRIPOS>BOND
     1     1     2 ar  
     2     1     7 ar  
     3     2     3 1   
     4     2     4 ar  
     5     3    26 1   
     6     3    27 1   
     7     4     5 ar  
     8     4    28 1   
     9     5     6 ar  
    10     5     8 1   
    11     6     7 ar  
    12     6    29 1   
    13     7     9 1   
    14     8    30 1   
    15     8    31 1   
    16     8    32 1   
    17     9    10 1   
    18     9    33 1   
    19     9    34 1   
    20    10    13 1   
    21    10    35 1   
    22    10    36 1   
    23    11    12 ar  
    24    11    16 ar  
    25    12    13 ar  
    26    12    37 1   
    27    13    14 ar  
    28    14    15 ar  
    29    14    38 1   
    30    15    16 ar  
    31    15    17 1   
    32    16    39 1   
    33    17    18 1   
    34    17    40 1   
    35    17    41 1   
    36    18    25 1   
    37    18    42 1   
    38    18    43 1   
    39    19    20 ar  
    40    19    25 ar  
    41    20    21 1   
    42    20    22 ar  
    43    21    44 1   
    44    21    45 1   
    45    22    23 ar  
    46    22    46 1   
    47    23    24 ar  
    48    23    51 1   
    49    24    25 ar  
    50    24    47 1   
    51    48    51 1   
    52    49    51 1   
    53    50    51 1   
@<TRIPOS>SUBSTRUCTURE
     1 XFJ         1 TEMP              0 ****  ****    0 ROOT
