@<TRIPOS>MOLECULE
XFK
   51    53     1     0     0
SMALL
bcc


@<TRIPOS>ATOM
      1 N01          4.1090     1.3450     0.2100 nb         1 XFK      -0.756000
      2 C02          5.1990     2.0900     0.3510 ca         1 XFK       0.669200
      3 N02          5.0650     3.2610     1.0390 nv         1 XFK      -0.949500
      4 C03          6.4340     1.7300    -0.2160 ca         1 XFK      -0.315300
      5 C04          6.5210     0.5640    -0.9480 ca         1 XFK       0.002700
      6 C05          5.3620    -0.2090    -1.0970 ca         1 XFK      -0.298300
      7 C06          4.1900     0.2190    -0.5030 ca         1 XFK       0.461600
      8 C07          7.8150     0.1160    -1.5540 c3         1 XFK      -0.053800
      9 C08          2.9240    -0.5850    -0.6010 c3         1 XFK      -0.124700
     10 C09          2.5400    -1.2020     0.7500 c3         1 XFK      -0.024100
     11 N11         -0.0180    -3.9420     0.4190 nb         1 XFK      -0.663000
     12 C12          1.1290    -3.2790     0.5010 ca         1 XFK       0.399200
     13 C13          1.2160    -1.9040     0.6900 ca         1 XFK      -0.192600
     14 C14          0.0190    -1.2050     0.7920 ca         1 XFK      -0.089000
     15 C15         -1.1950    -1.8750     0.7150 ca         1 XFK      -0.196600
     16 C16         -1.1460    -3.2520     0.5240 ca         1 XFK       0.400200
     17 C17         -2.5000    -1.1410     0.7970 c3         1 XFK      -0.024100
     18 C18         -2.9370    -0.6050    -0.5740 c3         1 XFK      -0.036100
     19 C21         -5.4300    -0.3450    -0.7100 ca         1 XFK      -0.314300
     20 C22         -6.5750     0.4550    -0.5570 ca         1 XFK       0.666200
     21 N22         -7.8150    -0.0460    -0.8330 nv         1 XFK      -0.944500
     22 N23         -6.5080     1.7300    -0.1860 nb         1 XFK      -0.754000
     23 C24         -5.3100     2.2700     0.0490 ca         1 XFK       0.467600
     24 C25         -4.1320     1.5540    -0.0780 ca         1 XFK      -0.300300
     25 C26         -4.1920     0.2120    -0.4680 ca         1 XFK      -0.002300
     26 HN02         4.2640     3.3370     1.6430 hn         1 XFK       0.414800
     27 HN0A         5.8990     3.6950     1.3970 hn         1 XFK       0.414800
     28 H03          7.3020     2.3640    -0.0770 ha         1 XFK       0.137000
     29 H05          5.3820    -1.1290    -1.6690 ha         1 XFK       0.140000
     30 H07          8.1850    -0.7760    -1.0450 hc         1 XFK       0.047033
     31 H07A         7.6870    -0.1470    -2.6050 hc         1 XFK       0.047033
     32 H07B         8.5840     0.8840    -1.4850 hc         1 XFK       0.047033
     33 H08          2.1120     0.0630    -0.9430 hc         1 XFK       0.056700
     34 H08A         3.0370    -1.3740    -1.3470 hc         1 XFK       0.056700
     35 H09          3.3190    -1.9030     1.0600 hc         1 XFK       0.057200
     36 H09A         2.5060    -0.4120     1.5040 hc         1 XFK       0.057200
     37 H12          2.0370    -3.8700     0.4200 h4         1 XFK       0.017100
     38 H14          0.0340    -0.1300     0.9450 ha         1 XFK       0.139000
     39 H16         -2.0680    -3.8220     0.4610 h4         1 XFK       0.016100
     40 H17         -3.2780    -1.7990     1.1910 hc         1 XFK       0.053700
     41 H17A        -2.4090    -0.3080     1.4990 hc         1 XFK       0.053700
     42 H18         -2.1340     0.0060    -0.9930 hc         1 XFK       0.054700
     43 H18A        -3.0890    -1.4420    -1.2600 hc         1 XFK       0.054700
     44 H21         -5.5260    -1.3810    -1.0150 ha         1 XFK       0.137000
     45 HN22        -7.9320    -1.0440    -0.7960 hn         1 XFK       0.413300
     46 HN2A        -8.5940     0.4740    -0.4630 hn         1 XFK       0.413300
     47 H25         -3.1800     2.0280     0.1250 ha         1 XFK       0.139000
     48 H27         -5.9530     3.8770     1.3140 hc         1 XFK       0.049700
     49 H27A        -4.3010     4.0540     0.7120 hc         1 XFK       0.049700
     50 H27B        -5.6770     4.3430    -0.3550 hc         1 XFK       0.049700
     51 C27         -5.3020     3.7130     0.4540 c3         1 XFK      -0.145400
@<TRIPOS>BOND
     1     1     2 ar  
     2     1     7 ar  
     3     2     3 1   
     4     2     4 ar  
     5     3    26 1   
     6     3    27 1   
     7     4     5 ar  
     8     4    28 1   
     9     5     6 ar  
    10     5     8 1   
    11     6     7 ar  
    12     6    29 1   
    13     7     9 1   
    14     8    30 1   
    15     8    31 1   
    16     8    32 1   
    17     9    10 1   
    18     9    33 1   
    19     9    34 1   
    20    10    13 1   
    21    10    35 1   
    22    10    36 1   
    23    11    12 ar  
    24    11    16 ar  
    25    12    13 ar  
    26    12    37 1   
    27    13    14 ar  
    28    14    15 ar  
    29    14    38 1   
    30    15    16 ar  
    31    15    17 1   
    32    16    39 1   
    33    17    18 1   
    34    17    40 1   
    35    17    41 1   
    36    18    25 1   
    37    18    42 1   
    38    18    43 1   
    39    19    20 ar  
    40    19    25 ar  
    41    19    44 1   
    42    20    21 1   
    43    20    22 ar  
    44    21    45 1   
    45    21    46 1   
    46    22    23 ar  
    47    23    24 ar  
    48    23    51 1   
    49    24    25 ar  
    50    24    47 1   
    51    48    51 1   
    52    49    51 1   
    53    50    51 1   
@<TRIPOS>SUBSTRUCTURE
     1 XFK         1 TEMP              0 ****  ****    0 ROOT
