@<TRIPOS>MOLECULE
XFK
   51    53     1     0     0
SMALL
No Charge or Current Charge


@<TRIPOS>ATOM
      1 N01          4.2260     1.6730    -0.1750 nb         1 XFK      -0.756000
      2 C02          5.3950     2.2910    -0.0930 ca         1 XFK       0.603900
      3 N02          5.2410     3.5630     0.2770 nv         1 XFK      -1.059900
      4 C03          6.6370     1.7020    -0.3410 ca         1 XFK      -0.232000
      5 C04          6.6710     0.3510    -0.7150 ca         1 XFK       0.002700
      6 C05          5.4420    -0.3230    -0.8100 ca         1 XFK      -0.215000
      7 C06          4.2480     0.3700    -0.5360 ca         1 XFK       0.396300
      8 C07          7.9840    -0.3590    -0.9980 c3         1 XFK      -0.053800
      9 C08          2.9030    -0.3360    -0.6210 c3         1 XFK      -0.124700
     10 C09          2.5860    -1.1570     0.6470 c3         1 XFK      -0.024100
     11 N11          0.0410    -3.9630     0.1900 nb         1 XFK      -0.663000
     12 C12          1.1990    -3.2700     0.2950 ca         1 XFK       0.333900
     13 C13          1.2510    -1.8830     0.5440 ca         1 XFK      -0.127300
     14 C14          0.0410    -1.1820     0.6940 ca         1 XFK      -0.071000
     15 C15         -1.1690    -1.8910     0.5870 ca         1 XFK      -0.131300
     16 C16         -1.1170    -3.2780     0.3350 ca         1 XFK       0.334900
     17 C17         -2.5040    -1.1740     0.7350 c3         1 XFK      -0.024100
     18 C18         -2.9030    -0.4140    -0.5460 c3         1 XFK      -0.036100
     19 C21         -5.4380    -0.2970    -0.8100 ca         1 XFK      -0.231000
     20 C22         -6.6270     0.4150    -0.6410 ca         1 XFK       0.600900
     21 N22         -7.8260    -0.0570    -0.9920 nv         1 XFK      -1.054900
     22 N23         -6.7260     1.6230    -0.1080 nb         1 XFK      -0.754000
     23 C24         -5.5760     2.2060     0.2980 ca         1 XFK       0.402300
     24 C25         -4.3200     1.5830     0.1710 ca         1 XFK      -0.217000
     25 C26         -4.2380     0.3000    -0.3960 ca         1 XFK      -0.002300
     26 HN02         4.3250     3.7830     0.6490 hn         1 XFK       0.470000
     27 HN0A         6.0310     4.0250     0.7110 hn         1 XFK       0.470000
     28 H03          7.5500     2.2810    -0.2450 ha         1 XFK       0.119000
     29 H05          5.4080    -1.3720    -1.0910 ha         1 XFK       0.122000
     30 H07          8.3710    -0.8390    -0.0910 hc         1 XFK       0.047033
     31 H07A         7.8610    -1.1350    -1.7630 hc         1 XFK       0.047033
     32 H07B         8.7470     0.3410    -1.3580 hc         1 XFK       0.047033
     33 H08          2.1000     0.3910    -0.7920 hc         1 XFK       0.056700
     34 H08A         2.8970    -1.0060    -1.4900 hc         1 XFK       0.056700
     35 H09          3.3970    -1.8750     0.8240 hc         1 XFK       0.057200
     36 H09A         2.5790    -0.4860     1.5160 hc         1 XFK       0.057200
     37 H12          2.1150    -3.8470     0.1710 h4         1 XFK       0.017100
     38 H14          0.0410    -0.1110     0.8870 ha         1 XFK       0.121000
     39 H16         -2.0330    -3.8610     0.2430 h4         1 XFK       0.016100
     40 H17         -3.2960    -1.8910     0.9860 hc         1 XFK       0.053700
     41 H17A        -2.4560    -0.4670     1.5730 hc         1 XFK       0.053700
     42 H18         -2.1180     0.3110    -0.7940 hc         1 XFK       0.054700
     43 H18A        -2.9440    -1.1200    -1.3840 hc         1 XFK       0.054700
     44 H21         -5.4460    -1.2880    -1.2530 ha         1 XFK       0.119000
     45 HN22        -7.9230    -1.0620    -1.0810 hn         1 XFK       0.468500
     46 HN2A        -8.6160     0.4460    -0.6070 hn         1 XFK       0.468500
     47 H25         -3.4230     2.0940     0.5100 ha         1 XFK       0.121000
     48 H27         -6.5920     3.6690     1.5400 hc         1 XFK       0.049700
     49 H27A        -4.8320     3.8400     1.5170 hc         1 XFK       0.049700
     50 H27B        -5.7860     4.3510     0.1150 hc         1 XFK       0.049700
     51 C27         -5.7040     3.5920     0.9010 c3         1 XFK      -0.145400
@<TRIPOS>BOND
     1     1     2 ar  
     2     1     7 ar  
     3     2     3 1   
     4     2     4 ar  
     5     3    26 1   
     6     3    27 1   
     7     4     5 ar  
     8     4    28 1   
     9     5     6 ar  
    10     5     8 1   
    11     6     7 ar  
    12     6    29 1   
    13     7     9 1   
    14     8    30 1   
    15     8    31 1   
    16     8    32 1   
    17     9    10 1   
    18     9    33 1   
    19     9    34 1   
    20    10    13 1   
    21    10    35 1   
    22    10    36 1   
    23    11    12 ar  
    24    11    16 ar  
    25    12    13 ar  
    26    12    37 1   
    27    13    14 ar  
    28    14    15 ar  
    29    14    38 1   
    30    15    16 ar  
    31    15    17 1   
    32    16    39 1   
    33    17    18 1   
    34    17    40 1   
    35    17    41 1   
    36    18    25 1   
    37    18    42 1   
    38    18    43 1   
    39    19    20 ar  
    40    19    25 ar  
    41    19    44 1   
    42    20    21 1   
    43    20    22 ar  
    44    21    45 1   
    45    21    46 1   
    46    22    23 ar  
    47    23    24 ar  
    48    23    51 1   
    49    24    25 ar  
    50    24    47 1   
    51    48    51 1   
    52    49    51 1   
    53    50    51 1   
@<TRIPOS>SUBSTRUCTURE
     1 XFK         1 TEMP              0 ****  ****    0 ROOT
