@<TRIPOS>MOLECULE
XFL
   51    53     1     0     0
SMALL
abcg2


@<TRIPOS>ATOM
      1 N1           0.0040     1.3030     0.0060 nb         1 XFL      -0.673000
      2 C2           1.1250     1.9740    -0.2460 ca         1 XFL       0.356800
      3 C3           1.1700     3.3650    -0.2330 ca         1 XFL      -0.166500
      4 C4           0.0100     4.0650     0.0570 ca         1 XFL      -0.073000
      5 C5          -1.1530     3.3590     0.3210 ca         1 XFL      -0.166500
      6 C6          -1.1140     1.9690     0.2820 ca         1 XFL       0.356800
      7 N11          3.9050    -1.4320    -0.0320 nb         1 XFL      -0.746000
      8 C12          4.9320    -2.2360    -0.2820 ca         1 XFL       0.599400
      9 N12          4.6650    -3.4000    -0.9450 nv         1 XFL      -1.054900
     10 C13          6.2520    -1.9030     0.0720 ca         1 XFL      -0.233500
     11 C14          6.4940    -0.6960     0.6950 ca         1 XFL       0.000200
     12 C15          5.4040     0.1460     0.9480 ca         1 XFL      -0.218000
     13 C16          4.1380    -0.2640     0.5720 ca         1 XFL       0.398800
     14 C18          2.9380     0.6070     0.8100 c3         1 XFL      -0.124200
     15 C19          2.3580     1.1560    -0.4990 c3         1 XFL      -0.122200
     16 N21         -3.8850    -1.4260    -0.0460 nb         1 XFL      -0.746000
     17 C22         -4.9080    -2.2470     0.1630 ca         1 XFL       0.599400
     18 N22         -4.6240    -3.4650     0.7110 nv         1 XFL      -1.054900
     19 C23         -6.2240    -1.9150    -0.2030 ca         1 XFL      -0.233500
     20 C24         -6.4670    -0.6950    -0.7990 ca         1 XFL       0.000200
     21 C25         -5.3790     0.1590    -1.0180 ca         1 XFL      -0.218000
     22 C26         -4.1170    -0.2480    -0.6290 ca         1 XFL       0.398800
     23 C28         -2.9200     0.6370    -0.8280 c3         1 XFL      -0.124200
     24 C29         -2.3500     1.1460     0.5020 c3         1 XFL      -0.122200
     25 H3           2.0950     3.8840    -0.4480 ha         1 XFL       0.121000
     26 H4           0.0120     5.1470     0.0770 ha         1 XFL       0.116000
     27 H5          -2.0770     3.8730     0.5530 ha         1 XFL       0.121000
     28 HN12         3.7060    -3.7080    -0.9280 hn         1 XFL       0.468000
     29 HN1A         5.3350    -4.1460    -0.8630 hn         1 XFL       0.468000
     30 H13          7.0610    -2.5900    -0.1420 ha         1 XFL       0.117500
     31 H15          5.5470     1.1000     1.4390 ha         1 XFL       0.120000
     32 H17          8.2070     0.5740     0.4950 hc         1 XFL       0.045700
     33 H17A         7.9150     0.0210     2.1340 hc         1 XFL       0.045700
     34 H17B         8.6000    -1.0860     0.9400 hc         1 XFL       0.045700
     35 H18          2.1660     0.0260     1.3230 hc         1 XFL       0.060200
     36 H18A         3.2050     1.4360     1.4680 hc         1 XFL       0.060200
     37 H19          2.1110     0.3210    -1.1590 hc         1 XFL       0.062700
     38 H19A         3.1120     1.7610    -1.0070 hc         1 XFL       0.062700
     39 HN22        -3.7530    -3.5340     1.2110 hn         1 XFL       0.468000
     40 HN2A        -5.3820    -3.9720     1.1360 hn         1 XFL       0.468000
     41 H23         -7.0310    -2.6140    -0.0170 ha         1 XFL       0.117500
     42 H25         -5.5220     1.1250    -1.4870 ha         1 XFL       0.120000
     43 H27         -8.1930     0.5520    -0.5780 hc         1 XFL       0.045700
     44 H27A        -7.8740     0.0640    -2.2310 hc         1 XFL       0.045700
     45 H27B        -8.5660    -1.0930    -1.0890 hc         1 XFL       0.045700
     46 H28         -2.1420     0.0770    -1.3530 hc         1 XFL       0.060200
     47 H28A        -3.1880     1.4860    -1.4610 hc         1 XFL       0.060200
     48 H29         -2.1090     0.2920     1.1390 hc         1 XFL       0.062700
     49 H29A        -3.1070     1.7380     1.0220 hc         1 XFL       0.062700
     50 C17          7.8800    -0.2830     1.0870 c3         1 XFL      -0.052800
     51 C27         -7.8500    -0.2790    -1.1960 c3         1 XFL      -0.052800
@<TRIPOS>BOND
     1     1     2 ar  
     2     1     6 ar  
     3     2     3 ar  
     4     2    15 1   
     5     3     4 ar  
     6     3    25 1   
     7     4     5 ar  
     8     4    26 1   
     9     5     6 ar  
    10     5    27 1   
    11     6    24 1   
    12     7     8 ar  
    13     7    13 ar  
    14     8     9 1   
    15     8    10 ar  
    16     9    28 1   
    17     9    29 1   
    18    10    11 ar  
    19    10    30 1   
    20    11    12 ar  
    21    11    50 1   
    22    12    13 ar  
    23    12    31 1   
    24    13    14 1   
    25    14    15 1   
    26    14    35 1   
    27    14    36 1   
    28    15    37 1   
    29    15    38 1   
    30    16    17 ar  
    31    16    22 ar  
    32    17    18 1   
    33    17    19 ar  
    34    18    39 1   
    35    18    40 1   
    36    19    20 ar  
    37    19    41 1   
    38    20    21 ar  
    39    20    51 1   
    40    21    22 ar  
    41    21    42 1   
    42    22    23 1   
    43    23    24 1   
    44    23    46 1   
    45    23    47 1   
    46    24    48 1   
    47    24    49 1   
    48    32    50 1   
    49    33    50 1   
    50    34    50 1   
    51    43    51 1   
    52    44    51 1   
    53    45    51 1   
@<TRIPOS>SUBSTRUCTURE
     1 XFL         1 TEMP              0 ****  ****    0 ROOT
