@<TRIPOS>MOLECULE
XFL
   51    53     1     0     0
SMALL
No Charge or Current Charge


@<TRIPOS>ATOM
      1 N1           0.0030     0.8200    -0.0150 nb         1 XFL      -0.673000
      2 C2           1.1580     1.5150    -0.1190 ca         1 XFL       0.356800
      3 C3           1.2030     2.9210    -0.0900 ca         1 XFL      -0.166500
      4 C4           0.0080     3.6430     0.0500 ca         1 XFL      -0.073000
      5 C5          -1.1900     2.9200     0.1580 ca         1 XFL      -0.166500
      6 C6          -1.1500     1.5140     0.1220 ca         1 XFL       0.356800
      7 N11          4.4710    -1.5210     1.3390 nb         1 XFL      -0.746000
      8 C12          5.5890    -2.2190     1.2020 ca         1 XFL       0.599400
      9 N12          5.4390    -3.4660     1.6540 nv         1 XFL      -1.054900
     10 C13          6.7840    -1.7300     0.6700 ca         1 XFL      -0.233500
     11 C14          6.8240    -0.3970     0.2350 ca         1 XFL       0.000200
     12 C15          5.6470     0.3590     0.3660 ca         1 XFL      -0.218000
     13 C16          4.4980    -0.2360     0.9210 ca         1 XFL       0.398800
     14 C18          3.2090     0.5590     1.0700 c3         1 XFL      -0.124200
     15 C19          2.4340     0.6980    -0.2640 c3         1 XFL      -0.122200
     16 N21         -4.4750    -1.4380    -1.4730 nb         1 XFL      -0.746000
     17 C22         -5.5960    -2.1360    -1.3720 ca         1 XFL       0.599400
     18 N22         -5.4460    -3.3670    -1.8670 nv         1 XFL      -1.054900
     19 C23         -6.7870    -1.6710    -0.8100 ca         1 XFL      -0.233500
     20 C24         -6.8220    -0.3590    -0.3140 ca         1 XFL       0.000200
     21 C25         -5.6440     0.3990    -0.4130 ca         1 XFL      -0.218000
     22 C26         -4.4970    -0.1740    -0.9970 ca         1 XFL       0.398800
     23 C28         -3.2050     0.6230    -1.1090 c3         1 XFL      -0.124200
     24 C29         -2.4290     0.6970     0.2290 c3         1 XFL      -0.122200
     25 H3           2.1540     3.4400    -0.1750 ha         1 XFL       0.121000
     26 H4           0.0100     4.7310     0.0750 ha         1 XFL       0.116000
     27 H5          -2.1380     3.4390     0.2660 ha         1 XFL       0.121000
     28 HN12         4.6130    -3.6130     2.2210 hn         1 XFL       0.468000
     29 HN1A         6.2740    -3.9710     1.9260 hn         1 XFL       0.468000
     30 H13          7.6570    -2.3700     0.5940 ha         1 XFL       0.117500
     31 H15          5.6180     1.3950     0.0420 ha         1 XFL       0.120000
     32 H17          8.0940     0.0910    -1.4510 hc         1 XFL       0.045700
     33 H17A         8.1630     1.2740    -0.1330 hc         1 XFL       0.045700
     34 H17B         8.9850    -0.2840     0.0340 hc         1 XFL       0.045700
     35 H18          2.5540     0.0900     1.8150 hc         1 XFL       0.060200
     36 H18A         3.4420     1.5580     1.4570 hc         1 XFL       0.060200
     37 H19          2.2050    -0.3030    -0.6500 hc         1 XFL       0.062700
     38 H19A         3.0840     1.1690    -1.0110 hc         1 XFL       0.062700
     39 HN22        -4.4850    -3.6470    -2.0190 hn         1 XFL       0.468000
     40 HN2A        -6.0840    -4.0850    -1.5440 hn         1 XFL       0.468000
     41 H23         -7.6620    -2.3120    -0.7620 ha         1 XFL       0.117500
     42 H25         -5.6110     1.4190    -0.0410 ha         1 XFL       0.120000
     43 H27         -8.0860     0.0510     1.3970 hc         1 XFL       0.045700
     44 H27A        -8.1550     1.2960     0.1380 hc         1 XFL       0.045700
     45 H27B        -8.9820    -0.2490    -0.1020 hc         1 XFL       0.045700
     46 H28         -2.5520     0.1870    -1.8760 hc         1 XFL       0.060200
     47 H28A        -3.4350     1.6400    -1.4480 hc         1 XFL       0.060200
     48 H29         -2.2040    -0.3220     0.5680 hc         1 XFL       0.062700
     49 H29A        -3.0770     1.1350     0.9980 hc         1 XFL       0.062700
     50 C17          8.0860     0.2040    -0.3610 c3         1 XFL      -0.052800
     51 C27         -8.0810     0.2160     0.3130 c3         1 XFL      -0.052800
@<TRIPOS>BOND
     1     1     2 ar  
     2     1     6 ar  
     3     2     3 ar  
     4     2    15 1   
     5     3     4 ar  
     6     3    25 1   
     7     4     5 ar  
     8     4    26 1   
     9     5     6 ar  
    10     5    27 1   
    11     6    24 1   
    12     7     8 ar  
    13     7    13 ar  
    14     8     9 1   
    15     8    10 ar  
    16     9    28 1   
    17     9    29 1   
    18    10    11 ar  
    19    10    30 1   
    20    11    12 ar  
    21    11    50 1   
    22    12    13 ar  
    23    12    31 1   
    24    13    14 1   
    25    14    15 1   
    26    14    35 1   
    27    14    36 1   
    28    15    37 1   
    29    15    38 1   
    30    16    17 ar  
    31    16    22 ar  
    32    17    18 1   
    33    17    19 ar  
    34    18    39 1   
    35    18    40 1   
    36    19    20 ar  
    37    19    41 1   
    38    20    21 ar  
    39    20    51 1   
    40    21    22 ar  
    41    21    42 1   
    42    22    23 1   
    43    23    24 1   
    44    23    46 1   
    45    23    47 1   
    46    24    48 1   
    47    24    49 1   
    48    32    50 1   
    49    33    50 1   
    50    34    50 1   
    51    43    51 1   
    52    44    51 1   
    53    45    51 1   
@<TRIPOS>SUBSTRUCTURE
     1 XFL         1 TEMP              0 ****  ****    0 ROOT
