@<TRIPOS>MOLECULE
XFM
   51    53     1     0     0
SMALL
abcg2


@<TRIPOS>ATOM
      1 N1           3.8660    -1.3380    -0.1450 nb         1 XFM      -0.749000
      2 C2           4.1300    -0.2350     0.5600 ca         1 XFM       0.398300
      3 C3           5.4050     0.1010     0.9740 ca         1 XFM      -0.217000
      4 C4           6.4720    -0.7460     0.6460 ca         1 XFM       0.000700
      5 C5           6.1960    -1.8870    -0.0770 ca         1 XFM      -0.233000
      6 C6           4.8690    -2.1500    -0.4600 ca         1 XFM       0.599900
      7 C7           2.9530     0.6440     0.8710 c3         1 XFM      -0.123700
      8 C8           2.3430     1.2610    -0.3950 c3         1 XFM      -0.122700
      9 C9           1.1180     2.0660    -0.0720 ca         1 XFM       0.357300
     10 N10          0.0010     1.3830     0.1670 nb         1 XFM      -0.678000
     11 C11         -1.1100     2.0340     0.4980 ca         1 XFM       0.355300
     12 C12         -1.1480     3.4210     0.6100 ca         1 XFM      -0.164000
     13 C13          0.0110     4.1390     0.3620 ca         1 XFM      -0.071000
     14 C14          1.1640     3.4540     0.0130 ca         1 XFM      -0.165000
     15 C15         -2.3410     1.1990     0.7030 c3         1 XFM      -0.122700
     16 C16         -2.9060     0.7070    -0.6370 c3         1 XFM      -0.034100
     17 C17         -4.0970    -0.1840    -0.4380 ca         1 XFM      -0.002300
     18 C18         -3.9280    -1.5270    -0.0860 ca         1 XFM      -0.212000
     19 C19         -5.0480    -2.3150     0.1150 ca         1 XFM       0.399300
     20 N20         -6.2910    -1.8420    -0.0050 nb         1 XFM      -0.754000
     21 C21         -6.4620    -0.5650    -0.3290 ca         1 XFM       0.598900
     22 C22         -5.3810     0.3040    -0.5590 ca         1 XFM      -0.233000
     23 N23         -7.7470    -0.1060    -0.3880 nv         1 XFM      -1.055900
     24 C24         -4.9220    -3.7680     0.4610 c3         1 XFM      -0.144400
     25 C25          7.8700    -0.4040     1.0610 c3         1 XFM      -0.053800
     26 N26          4.5540    -3.2910    -1.1390 nv         1 XFM      -1.054900
     27 H3           5.5750     1.0060     1.5430 ha         1 XFM       0.120000
     28 H5           6.9860    -2.5750    -0.3540 ha         1 XFM       0.118000
     29 H7           2.1860     0.0530     1.3800 hc         1 XFM       0.060200
     30 H7A          3.2520     1.4390     1.5570 hc         1 XFM       0.060200
     31 H8           3.0860     1.8890    -0.8890 hc         1 XFM       0.062200
     32 H8A          2.0790     0.4600    -1.0880 hc         1 XFM       0.062200
     33 H12         -2.0670     3.9220     0.8850 ha         1 XFM       0.122000
     34 H13          0.0150     5.2180     0.4380 ha         1 XFM       0.117000
     35 H14          2.0860     3.9840    -0.1910 ha         1 XFM       0.122000
     36 H15         -2.0910     0.3380     1.3280 hc         1 XFM       0.059700
     37 H15A        -3.1040     1.7740     1.2320 hc         1 XFM       0.059700
     38 H16         -3.1820     1.5660    -1.2510 hc         1 XFM       0.057700
     39 H16A        -2.1240     0.1640    -1.1720 hc         1 XFM       0.057700
     40 H18         -2.9360    -1.9490     0.0210 ha         1 XFM       0.127000
     41 H22         -5.5590     1.3380    -0.8290 ha         1 XFM       0.117000
     42 HN23        -8.4630    -0.8070    -0.4830 hn         1 XFM       0.467000
     43 HN2A        -7.9180     0.7290    -0.9220 hn         1 XFM       0.467000
     44 H24         -5.5260    -4.0160     1.3340 hc         1 XFM       0.049367
     45 H24A        -5.2770    -4.3910    -0.3620 hc         1 XFM       0.049367
     46 H24B        -3.8890    -4.0430     0.6670 hc         1 XFM       0.049367
     47 H25          7.9180    -0.1740     2.1260 hc         1 XFM       0.046033
     48 H25A         8.5640    -1.2170     0.8560 hc         1 XFM       0.046033
     49 H25B         8.2230     0.4800     0.5280 hc         1 XFM       0.046033
     50 HN26         5.2960    -3.7570    -1.6350 hn         1 XFM       0.468500
     51 HN2B         3.6730    -3.2890    -1.6270 hn         1 XFM       0.468500
@<TRIPOS>BOND
     1     1     2 ar  
     2     1     6 ar  
     3     2     3 ar  
     4     2     7 1   
     5     3     4 ar  
     6     3    27 1   
     7     4     5 ar  
     8     4    25 1   
     9     5     6 ar  
    10     5    28 1   
    11     6    26 1   
    12     7     8 1   
    13     7    29 1   
    14     7    30 1   
    15     8     9 1   
    16     8    31 1   
    17     8    32 1   
    18     9    10 ar  
    19     9    14 ar  
    20    10    11 ar  
    21    11    12 ar  
    22    11    15 1   
    23    12    13 ar  
    24    12    33 1   
    25    13    14 ar  
    26    13    34 1   
    27    14    35 1   
    28    15    16 1   
    29    15    36 1   
    30    15    37 1   
    31    16    17 1   
    32    16    38 1   
    33    16    39 1   
    34    17    18 ar  
    35    17    22 ar  
    36    18    19 ar  
    37    18    40 1   
    38    19    20 ar  
    39    19    24 1   
    40    20    21 ar  
    41    21    22 ar  
    42    21    23 1   
    43    22    41 1   
    44    23    42 1   
    45    23    43 1   
    46    24    44 1   
    47    24    45 1   
    48    24    46 1   
    49    25    47 1   
    50    25    48 1   
    51    25    49 1   
    52    26    50 1   
    53    26    51 1   
@<TRIPOS>SUBSTRUCTURE
     1 XFM         1 TEMP              0 ****  ****    0 ROOT
