@<TRIPOS>MOLECULE
XFM
   51    53     1     0     0
SMALL
No Charge or Current Charge


@<TRIPOS>ATOM
      1 N1           4.5430    -1.5980     1.0650 nb         1 XFM      -0.749000
      2 C2           4.5590    -0.2670     0.8310 ca         1 XFM       0.398300
      3 C3           5.6780     0.3970     0.2920 ca         1 XFM      -0.217000
      4 C4           6.8340    -0.3370    -0.0200 ca         1 XFM       0.000700
      5 C5           6.8060    -1.7170     0.2270 ca         1 XFM      -0.233000
      6 C6           5.6430    -2.2720     0.7670 ca         1 XFM       0.599900
      7 C7           3.2900     0.5030     1.1690 c3         1 XFM      -0.123700
      8 C8           2.4370     0.8310    -0.0810 c3         1 XFM      -0.122700
      9 C9           1.1820     1.6220     0.2560 ca         1 XFM       0.357300
     10 N10          0.0280     0.9210     0.3380 nb         1 XFM      -0.678000
     11 C11         -1.1070     1.5920     0.6420 ca         1 XFM       0.355300
     12 C12         -1.1300     2.9800     0.8720 ca         1 XFM      -0.164000
     13 C13          0.0670     3.7090     0.7890 ca         1 XFM      -0.071000
     14 C14          1.2430     3.0110     0.4740 ca         1 XFM      -0.165000
     15 C15         -2.3830     0.7690     0.7160 c3         1 XFM      -0.122700
     16 C16         -3.1870     0.8060    -0.6010 c3         1 XFM      -0.034100
     17 C17         -4.4690    -0.0070    -0.5130 ca         1 XFM      -0.002300
     18 C18         -4.4720    -1.3920    -0.7500 ca         1 XFM      -0.212000
     19 C19         -5.6800    -2.1090    -0.6530 ca         1 XFM       0.399300
     20 N20         -6.8560    -1.5220    -0.3400 nb         1 XFM      -0.754000
     21 C21         -6.8310    -0.2170    -0.1150 ca         1 XFM       0.598900
     22 C22         -5.6940     0.5920    -0.1840 ca         1 XFM      -0.233000
     23 N23         -8.0480     0.2450     0.1780 nv         1 XFM      -1.055900
     24 C24         -5.7240    -3.6040    -0.9090 c3         1 XFM      -0.144400
     25 C25          8.0620     0.3370    -0.6080 c3         1 XFM      -0.053800
     26 N26          5.5020    -3.5710     1.0350 nv         1 XFM      -1.054900
     27 H3           5.6410     1.4690     0.1170 ha         1 XFM       0.120000
     28 H5           7.6650    -2.3430     0.0070 ha         1 XFM       0.118000
     29 H7           2.6760    -0.0640     1.8810 hc         1 XFM       0.060200
     30 H7A          3.5580     1.4370     1.6770 hc         1 XFM       0.060200
     31 H8           3.0460     1.4010    -0.7930 hc         1 XFM       0.062200
     32 H8A          2.1730    -0.1050    -0.5890 hc         1 XFM       0.062200
     33 H12         -2.0640     3.4810     1.1110 ha         1 XFM       0.122000
     34 H13          0.0810     4.7840     0.9620 ha         1 XFM       0.117000
     35 H14          2.1910     3.5360     0.4010 ha         1 XFM       0.122000
     36 H15         -2.1500    -0.2740     0.9650 hc         1 XFM       0.059700
     37 H15A        -3.0150     1.1420     1.5310 hc         1 XFM       0.059700
     38 H16         -3.4180     1.8490    -0.8540 hc         1 XFM       0.057700
     39 H16A        -2.5580     0.4270    -1.4160 hc         1 XFM       0.057700
     40 H18         -3.5520    -1.9090    -1.0070 ha         1 XFM       0.127000
     41 H22         -5.7620     1.6570     0.0160 ha         1 XFM       0.117000
     42 HN23        -8.8050    -0.3920    -0.0380 hn         1 XFM       0.467000
     43 HN2A        -8.2260     1.2320     0.0280 hn         1 XFM       0.467000
     44 H24         -6.4130    -4.1070    -0.2200 hc         1 XFM       0.049367
     45 H24A        -6.0560    -3.8120    -1.9320 hc         1 XFM       0.049367
     46 H24B        -4.7360    -4.0590    -0.7770 hc         1 XFM       0.049367
     47 H25          8.1650     1.3660    -0.2430 hc         1 XFM       0.046033
     48 H25A         8.9790    -0.2010    -0.3410 hc         1 XFM       0.046033
     49 H25B         8.0010     0.3740    -1.7020 hc         1 XFM       0.046033
     50 HN26         6.1130    -4.2170     0.5460 hn         1 XFM       0.468500
     51 HN2B         4.5500    -3.8770     1.1960 hn         1 XFM       0.468500
@<TRIPOS>BOND
     1     1     2 ar  
     2     1     6 ar  
     3     2     3 ar  
     4     2     7 1   
     5     3     4 ar  
     6     3    27 1   
     7     4     5 ar  
     8     4    25 1   
     9     5     6 ar  
    10     5    28 1   
    11     6    26 1   
    12     7     8 1   
    13     7    29 1   
    14     7    30 1   
    15     8     9 1   
    16     8    31 1   
    17     8    32 1   
    18     9    10 ar  
    19     9    14 ar  
    20    10    11 ar  
    21    11    12 ar  
    22    11    15 1   
    23    12    13 ar  
    24    12    33 1   
    25    13    14 ar  
    26    13    34 1   
    27    14    35 1   
    28    15    16 1   
    29    15    36 1   
    30    15    37 1   
    31    16    17 1   
    32    16    38 1   
    33    16    39 1   
    34    17    18 ar  
    35    17    22 ar  
    36    18    19 ar  
    37    18    40 1   
    38    19    20 ar  
    39    19    24 1   
    40    20    21 ar  
    41    21    22 ar  
    42    21    23 1   
    43    22    41 1   
    44    23    42 1   
    45    23    43 1   
    46    24    44 1   
    47    24    45 1   
    48    24    46 1   
    49    25    47 1   
    50    25    48 1   
    51    25    49 1   
    52    26    50 1   
    53    26    51 1   
@<TRIPOS>SUBSTRUCTURE
     1 XFM         1 TEMP              0 ****  ****    0 ROOT
