@<TRIPOS>MOLECULE
XFN
   54    56     1     0     0
SMALL
bcc


@<TRIPOS>ATOM
      1 C01          1.1620     2.7430    -0.2040 ca         1 XFN      -0.194000
      2 C02         -0.0030     3.4540     0.0990 ca         1 XFN       0.146600
      3 N02          0.0150     4.8330     0.1870 nv         1 XFN      -0.822200
      4 C03         -1.1740     2.7370     0.3630 ca         1 XFN      -0.194000
      5 C04         -1.1850     1.3480     0.3300 ca         1 XFN      -0.041300
      6 C05         -0.0120     0.6610     0.0310 ca         1 XFN      -0.159000
      7 C06          1.1650     1.3540    -0.2380 ca         1 XFN      -0.041300
      8 C07         -2.4690     0.6000     0.5620 c3         1 XFN      -0.029100
      9 C08          2.4430     0.6120    -0.5150 c3         1 XFN      -0.029100
     10 C09          3.2890     0.4430     0.7550 c3         1 XFN      -0.125200
     11 C11          5.4970    -2.3380    -0.0510 ca         1 XFN       0.665700
     12 N12          4.4140    -1.6220     0.2290 nb         1 XFN      -0.751500
     13 C13          4.5540    -0.3190     0.4840 ca         1 XFN       0.464100
     14 C14          5.7820     0.3170     0.4720 ca         1 XFN      -0.299800
     15 C15          6.9320    -0.4280     0.1860 ca         1 XFN       0.000200
     16 C16          6.7850    -1.7730    -0.0800 ca         1 XFN      -0.316300
     17 C18          8.2810     0.2250     0.1810 c3         1 XFN      -0.052800
     18 C34         -3.3050     0.4940    -0.7210 c3         1 XFN      -0.125200
     19 C35         -4.5700    -0.2860    -0.5050 ca         1 XFN       0.464100
     20 C36         -5.8020     0.3410    -0.4910 ca         1 XFN      -0.299800
     21 C37         -6.9520    -0.4220    -0.2560 ca         1 XFN       0.000200
     22 C38         -6.8000    -1.7770    -0.0470 ca         1 XFN      -0.316300
     23 C39         -5.5080    -2.3330    -0.0790 ca         1 XFN       0.665700
     24 N40         -4.4240    -1.5980    -0.3010 nb         1 XFN      -0.751500
     25 N41         -5.3260    -3.6770     0.0730 nv         1 XFN      -0.945500
     26 C42         -8.3050     0.2200    -0.2470 c3         1 XFN      -0.052800
     27 H01          2.0770     3.2860    -0.4170 ha         1 XFN       0.126500
     28 HN02         0.7580     5.2880    -0.3190 hn         1 XFN       0.387300
     29 HN0A        -0.8700     5.2880     0.0260 hn         1 XFN       0.387300
     30 H03         -2.0870     3.2750     0.5980 ha         1 XFN       0.126500
     31 H05         -0.0150    -0.4240     0.0030 ha         1 XFN       0.137000
     32 H07         -2.2550    -0.4060     0.9290 hc         1 XFN       0.054700
     33 H07A        -3.0620     1.1010     1.3330 hc         1 XFN       0.054700
     34 H08          2.2210    -0.3760    -0.9260 hc         1 XFN       0.054700
     35 H08A         3.0320     1.1450    -1.2660 hc         1 XFN       0.054700
     36 H09          3.5290     1.4260     1.1660 hc         1 XFN       0.056700
     37 H09A         2.6990    -0.0860     1.5080 hc         1 XFN       0.056700
     38 H14          5.8490     1.3770     0.6830 ha         1 XFN       0.138500
     39 H16          7.6450    -2.3920    -0.3060 ha         1 XFN       0.136000
     40 HN17         6.1030    -4.2690    -0.2570 hn         1 XFN       0.412800
     41 HN1A         4.4410    -4.0620    -0.0500 hn         1 XFN       0.412800
     42 H18          8.5350     0.5930     1.1760 hc         1 XFN       0.045867
     43 H18A         9.0630    -0.4650    -0.1320 hc         1 XFN       0.045867
     44 H18B         8.2960     1.0840    -0.4910 hc         1 XFN       0.045867
     45 H34         -3.5450     1.4970    -1.0820 hc         1 XFN       0.056700
     46 H34A        -2.7060     0.0080    -1.4960 hc         1 XFN       0.056700
     47 H36         -5.8720     1.4090    -0.6540 ha         1 XFN       0.138500
     48 H38         -7.6600    -2.4090     0.1380 ha         1 XFN       0.136000
     49 HN41        -6.0560    -4.2020     0.5240 hn         1 XFN       0.412800
     50 HN4A        -4.3950    -3.9770     0.3090 hn         1 XFN       0.412800
     51 H42         -8.5880     0.5320    -1.2540 hc         1 XFN       0.045867
     52 H42A        -9.0720    -0.4590     0.1200 hc         1 XFN       0.045867
     53 H42B        -8.3110     1.1140     0.3780 hc         1 XFN       0.045867
     54 N17          5.3110    -3.6570    -0.3550 nv         1 XFN      -0.945500
@<TRIPOS>BOND
     1     1     2 ar  
     2     1     7 ar  
     3     1    27 1   
     4     2     3 1   
     5     2     4 ar  
     6     3    28 1   
     7     3    29 1   
     8     4     5 ar  
     9     4    30 1   
    10     5     6 ar  
    11     5     8 1   
    12     6     7 ar  
    13     6    31 1   
    14     7     9 1   
    15     8    18 1   
    16     8    32 1   
    17     8    33 1   
    18     9    10 1   
    19     9    34 1   
    20     9    35 1   
    21    10    13 1   
    22    10    36 1   
    23    10    37 1   
    24    11    12 ar  
    25    11    16 ar  
    26    11    54 1   
    27    12    13 ar  
    28    13    14 ar  
    29    14    15 ar  
    30    14    38 1   
    31    15    16 ar  
    32    15    17 1   
    33    16    39 1   
    34    17    42 1   
    35    17    43 1   
    36    17    44 1   
    37    18    19 1   
    38    18    45 1   
    39    18    46 1   
    40    19    20 ar  
    41    19    24 ar  
    42    20    21 ar  
    43    20    47 1   
    44    21    22 ar  
    45    21    26 1   
    46    22    23 ar  
    47    22    48 1   
    48    23    24 ar  
    49    23    25 1   
    50    25    49 1   
    51    25    50 1   
    52    26    51 1   
    53    26    52 1   
    54    26    53 1   
    55    40    54 1   
    56    41    54 1   
@<TRIPOS>SUBSTRUCTURE
     1 XFN         1 TEMP              0 ****  ****    0 ROOT
