@<TRIPOS>MOLECULE
XFN
   54    56     1     0     0
SMALL
No Charge or Current Charge


@<TRIPOS>ATOM
      1 C01          1.1830     2.8280    -0.1730 ca         1 XFN      -0.176000
      2 C02         -0.0100     3.5250     0.0680 ca         1 XFN       0.285000
      3 N02         -0.0080     4.8930     0.1000 nv         1 XFN      -1.071000
      4 C03         -1.2030     2.8200     0.2740 ca         1 XFN      -0.176000
      5 C04         -1.2120     1.4120     0.2440 ca         1 XFN      -0.041300
      6 C05         -0.0120     0.7200    -0.0010 ca         1 XFN      -0.141000
      7 C06          1.1900     1.4210    -0.2110 ca         1 XFN      -0.041300
      8 C07         -2.5100     0.6460     0.4650 c3         1 XFN      -0.029100
      9 C08          2.4860     0.6640    -0.4690 c3         1 XFN      -0.029100
     10 C09          3.2180     0.3040     0.8410 c3         1 XFN      -0.125200
     11 C11          5.6410    -2.4190     0.5130 ca         1 XFN       0.600400
     12 N12          4.5050    -1.7750     0.7360 nb         1 XFN      -0.751500
     13 C13          4.5270    -0.4310     0.5930 ca         1 XFN       0.398800
     14 C14          5.6890     0.2760     0.2280 ca         1 XFN      -0.216500
     15 C15          6.8830    -0.4260    -0.0020 ca         1 XFN       0.000200
     16 C16          6.8490    -1.8200     0.1520 ca         1 XFN      -0.233000
     17 C18          8.1610     0.2960    -0.3940 c3         1 XFN      -0.052800
     18 C34         -3.2450     0.3530    -0.8600 c3         1 XFN      -0.125200
     19 C35         -4.5540    -0.3910    -0.6480 ca         1 XFN       0.398800
     20 C36         -5.7140     0.2990    -0.2450 ca         1 XFN      -0.216500
     21 C37         -6.9090    -0.4120    -0.0460 ca         1 XFN       0.000200
     22 C38         -6.8780    -1.7960    -0.2690 ca         1 XFN      -0.233000
     23 C39         -5.6730    -2.3780    -0.6690 ca         1 XFN       0.600400
     24 N40         -4.5350    -1.7260    -0.8560 nb         1 XFN      -0.751500
     25 N41         -5.5260    -3.6830    -0.9010 nv         1 XFN      -1.055900
     26 C42         -8.1840     0.2920     0.3870 c3         1 XFN      -0.052800
     27 H01          2.1080     3.3770    -0.3300 ha         1 XFN       0.108500
     28 HN02         0.8230     5.4060    -0.1850 hn         1 XFN       0.442500
     29 HN0A        -0.8900     5.4010     0.1360 hn         1 XFN       0.442500
     30 H03         -2.1270     3.3620     0.4590 ha         1 XFN       0.108500
     31 H05         -0.0130    -0.3680    -0.0270 ha         1 XFN       0.119000
     32 H07         -2.3050    -0.3010     0.9790 hc         1 XFN       0.054700
     33 H07A        -3.1740     1.2140     1.1290 hc         1 XFN       0.054700
     34 H08          2.2790    -0.2560    -1.0290 hc         1 XFN       0.054700
     35 H08A         3.1520     1.2630    -1.1030 hc         1 XFN       0.054700
     36 H09          3.4170     1.2240     1.4030 hc         1 XFN       0.056700
     37 H09A         2.5520    -0.2990     1.4700 hc         1 XFN       0.056700
     38 H14          5.6560     1.3570     0.1250 ha         1 XFN       0.120500
     39 H16          7.7370    -2.4230    -0.0080 ha         1 XFN       0.118000
     40 HN17         6.3290    -4.2720     0.8920 hn         1 XFN       0.468000
     41 HN1A         4.6470    -4.0100     1.1760 hn         1 XFN       0.468000
     42 H18          8.7190     0.6120     0.4950 hc         1 XFN       0.045867
     43 H18A         8.8170    -0.3490    -0.9900 hc         1 XFN       0.045867
     44 H18B         7.9460     1.1900    -0.9910 hc         1 XFN       0.045867
     45 H34         -3.4420     1.3000    -1.3760 hc         1 XFN       0.056700
     46 H34A        -2.5800    -0.2200    -1.5190 hc         1 XFN       0.056700
     47 H36         -5.6790     1.3740    -0.0890 ha         1 XFN       0.120500
     48 H38         -7.7670    -2.4050    -0.1370 ha         1 XFN       0.118000
     49 HN41        -6.1960    -4.3110    -0.4720 hn         1 XFN       0.468000
     50 HN4A        -4.5670    -4.0060    -0.9530 hn         1 XFN       0.468000
     51 H42         -8.7430     0.6550    -0.4830 hc         1 XFN       0.045867
     52 H42A        -8.8400    -0.3810     0.9520 hc         1 XFN       0.045867
     53 H42B        -7.9640     1.1540     1.0280 hc         1 XFN       0.045867
     54 N17          5.4940    -3.7330     0.6940 nv         1 XFN      -1.055900
@<TRIPOS>BOND
     1     1     2 ar  
     2     1     7 ar  
     3     1    27 1   
     4     2     3 1   
     5     2     4 ar  
     6     3    28 1   
     7     3    29 1   
     8     4     5 ar  
     9     4    30 1   
    10     5     6 ar  
    11     5     8 1   
    12     6     7 ar  
    13     6    31 1   
    14     7     9 1   
    15     8    18 1   
    16     8    32 1   
    17     8    33 1   
    18     9    10 1   
    19     9    34 1   
    20     9    35 1   
    21    10    13 1   
    22    10    36 1   
    23    10    37 1   
    24    11    12 ar  
    25    11    16 ar  
    26    11    54 1   
    27    12    13 ar  
    28    13    14 ar  
    29    14    15 ar  
    30    14    38 1   
    31    15    16 ar  
    32    15    17 1   
    33    16    39 1   
    34    17    42 1   
    35    17    43 1   
    36    17    44 1   
    37    18    19 1   
    38    18    45 1   
    39    18    46 1   
    40    19    20 ar  
    41    19    24 ar  
    42    20    21 ar  
    43    20    47 1   
    44    21    22 ar  
    45    21    26 1   
    46    22    23 ar  
    47    22    48 1   
    48    23    24 ar  
    49    23    25 1   
    50    25    49 1   
    51    25    50 1   
    52    26    51 1   
    53    26    52 1   
    54    26    53 1   
    55    40    54 1   
    56    41    54 1   
@<TRIPOS>SUBSTRUCTURE
     1 XFN         1 TEMP              0 ****  ****    0 ROOT
