@<TRIPOS>MOLECULE
XFS
   37    39     1     0     0
SMALL
No Charge or Current Charge


@<TRIPOS>ATOM
      1 C10          1.1110     4.2820    -7.9740 ca         1 XFS      -0.012000
      2 C13          0.3440     2.3770    -6.0520 ca         1 XFS      -0.085000
      3 C15         -0.3140     0.7090    -7.8710 c          1 XFS       0.714600
      4 C21         -0.9090     8.3480   -11.4370 c          1 XFS       0.730000
      5 C24          2.2810     8.3160   -12.6320 ca         1 XFS      -0.091800
      6 C02          3.1440     9.8150   -14.3110 ca         1 XFS      -0.137300
      7 C03          4.4230     9.7150   -13.7050 ca         1 XFS      -0.113000
      8 C04          4.6170     8.9130   -12.5590 ca         1 XFS      -0.124000
      9 C05          3.5140     8.2210   -12.0440 ca         1 XFS       0.061100
     10 O06          3.5220     7.3980   -10.9400 os         1 XFS      -0.184200
     11 C07          2.2040     6.9530   -10.8380 cc         1 XFS       0.144400
     12 C08          1.8350     6.0590    -9.7960 cg         1 XFS      -0.147300
     13 C09          1.5010     5.2460    -8.9490 ch         1 XFS      -0.059000
     14 C11          1.2250     4.5790    -6.6050 ca         1 XFS      -0.119000
     15 C12          0.8410     3.6280    -5.6470 ca         1 XFS      -0.161000
     16 C14          0.2230     2.0590    -7.4260 ca         1 XFS      -0.146600
     17 O16         -0.3900     0.4770    -9.0690 o          1 XFS      -0.721500
     18 O17         -0.6500    -0.0990    -7.0170 o          1 XFS      -0.721500
     19 C18          0.6130     3.0290    -8.3800 ca         1 XFS      -0.048000
     20 C19          1.4160     7.4860   -11.8480 cd         1 XFS      -0.003400
     21 O22         -1.1220     9.3680   -12.0750 o          1 XFS      -0.725000
     22 O23         -1.2280     8.2060   -10.2660 o          1 XFS      -0.725000
     23 C25          2.0490     9.1030   -13.7680 ca         1 XFS      -0.029000
     24 H1           0.0530     1.6550    -5.2920 ha         1 XFS       0.118000
     25 H2          -0.3070     6.2800   -11.6510 hc         1 XFS       0.041200
     26 H3          -0.2040     7.2700   -13.1790 hc         1 XFS       0.041200
     27 H4           3.5510    11.6010   -15.4810 hc         1 XFS       0.025033
     28 H5           3.2650    10.1450   -16.4510 hc         1 XFS       0.025033
     29 H6           1.9070    10.9780   -15.6750 hc         1 XFS       0.025033
     30 H7           5.2660    10.2600   -14.1240 ha         1 XFS       0.085000
     31 H8           5.5930     8.8330   -12.0890 ha         1 XFS       0.108000
     32 H9           1.6090     5.5450    -6.2820 ha         1 XFS       0.089000
     33 H10          0.9290     3.8590    -4.5880 ha         1 XFS       0.077000
     34 H12          0.5300     2.8110    -9.4430 ha         1 XFS       0.149000
     35 H14          1.0590     9.1630   -14.2140 ha         1 XFS       0.129000
     36 C01          2.9550    10.6820   -15.5460 c3         1 XFS      -0.028800
     37 C20         -0.0590     7.2520   -12.0930 c3         1 XFS      -0.177200
@<TRIPOS>BOND
     1     1    13 1   
     2     1    14 ar  
     3     1    19 ar  
     4     2    15 ar  
     5     2    16 ar  
     6     2    24 1   
     7     3    16 1   
     8     3    17 1   
     9     3    18 1   
    10     4    21 1   
    11     4    22 1   
    12     4    37 1   
    13     5     9 ar  
    14     5    20 1   
    15     5    23 ar  
    16     6     7 ar  
    17     6    23 ar  
    18     6    36 1   
    19     7     8 ar  
    20     7    30 1   
    21     8     9 ar  
    22     8    31 1   
    23     9    10 1   
    24    10    11 1   
    25    11    12 1   
    26    11    20 2   
    27    12    13 3   
    28    14    15 ar  
    29    14    32 1   
    30    15    33 1   
    31    16    19 ar  
    32    19    34 1   
    33    20    37 1   
    34    23    35 1   
    35    25    37 1   
    36    26    37 1   
    37    27    36 1   
    38    28    36 1   
    39    29    36 1   
@<TRIPOS>SUBSTRUCTURE
     1 XFS         1 TEMP              0 ****  ****    0 ROOT
