@<TRIPOS>MOLECULE
XFS
   37    39     1     0     0
SMALL
bcc


@<TRIPOS>ATOM
      1 C10          1.3140     4.1810    -8.0520 ca         1 XFS      -0.012000
      2 C13          0.7040     2.2800    -6.1200 ca         1 XFS      -0.103000
      3 C15         -1.5650     1.8170    -7.1670 c          1 XFS       0.925200
      4 C21         -0.9730     7.4190   -12.4320 c          1 XFS       0.940600
      5 C24          2.2970     8.2860   -12.6240 ca         1 XFS      -0.091800
      6 C02          3.1090    10.0300   -14.0580 ca         1 XFS      -0.137300
      7 C03          4.1510    10.2620   -13.1400 ca         1 XFS      -0.131000
      8 C04          4.2900     9.5330   -11.9720 ca         1 XFS      -0.142000
      9 C05          3.3440     8.5490   -11.7420 ca         1 XFS       0.061100
     10 O06          3.2800     7.7230   -10.6780 os         1 XFS      -0.184200
     11 C07          2.1830     6.9220   -10.8800 cc         1 XFS       0.144400
     12 C08          1.8910     5.9730    -9.8890 cg         1 XFS      -0.147300
     13 C09          1.6260     5.1460    -9.0470 ch         1 XFS      -0.059000
     14 C11          2.2320     3.9010    -7.0320 ca         1 XFS      -0.137000
     15 C12          1.9170     2.9550    -6.0720 ca         1 XFS      -0.179000
     16 C14         -0.2250     2.5510    -7.1240 ca         1 XFS      -0.146600
     17 O16         -2.3790     2.2000    -8.0280 o          1 XFS      -0.826800
     18 O17         -1.7180     0.9050    -6.3340 o          1 XFS      -0.826800
     19 C18          0.0900     3.5060    -8.0830 ca         1 XFS      -0.066000
     20 C19          1.5420     7.2150   -12.0430 cd         1 XFS      -0.003400
     21 O22         -1.9010     7.1270   -13.2090 o          1 XFS      -0.830300
     22 O23         -0.9770     8.2700   -11.5260 o          1 XFS      -0.830300
     23 C25          2.1790     9.0370   -13.7960 ca         1 XFS      -0.047000
     24 H1           0.4710     1.5400    -5.3670 ha         1 XFS       0.136000
     25 H2           0.1590     5.6110   -12.1360 hc         1 XFS       0.041200
     26 H3           0.4800     6.3790   -13.6700 hc         1 XFS       0.041200
     27 H4           2.9630    11.9260   -15.0730 hc         1 XFS       0.025033
     28 H5           3.9000    10.7240   -15.9380 hc         1 XFS       0.025033
     29 H6           2.1440    10.6010   -15.8970 hc         1 XFS       0.025033
     30 H7           4.8710    11.0430   -13.3530 ha         1 XFS       0.103000
     31 H8           5.0960     9.7270   -11.2770 ha         1 XFS       0.126000
     32 H9           3.1780     4.4250    -7.0000 ha         1 XFS       0.107000
     33 H10          2.6250     2.7410    -5.2810 ha         1 XFS       0.095000
     34 H12         -0.6210     3.7280    -8.8670 ha         1 XFS       0.167000
     35 H14          1.3710     8.8470   -14.4930 ha         1 XFS       0.147000
     36 C01          3.0220    10.8620   -15.3060 c3         1 XFS      -0.028800
     37 C20          0.3270     6.5830   -12.6080 c3         1 XFS      -0.177200
@<TRIPOS>BOND
     1     1    13 1   
     2     1    14 ar  
     3     1    19 ar  
     4     2    15 ar  
     5     2    16 ar  
     6     2    24 1   
     7     3    16 1   
     8     3    17 1   
     9     3    18 1   
    10     4    21 1   
    11     4    22 1   
    12     4    37 1   
    13     5     9 ar  
    14     5    20 1   
    15     5    23 ar  
    16     6     7 ar  
    17     6    23 ar  
    18     6    36 1   
    19     7     8 ar  
    20     7    30 1   
    21     8     9 ar  
    22     8    31 1   
    23     9    10 1   
    24    10    11 1   
    25    11    12 1   
    26    11    20 2   
    27    12    13 3   
    28    14    15 ar  
    29    14    32 1   
    30    15    33 1   
    31    16    19 ar  
    32    19    34 1   
    33    20    37 1   
    34    23    35 1   
    35    25    37 1   
    36    26    37 1   
    37    27    36 1   
    38    28    36 1   
    39    29    36 1   
@<TRIPOS>SUBSTRUCTURE
     1 XFS         1 TEMP              0 ****  ****    0 ROOT
