@<TRIPOS>MOLECULE
XFV
   12    12     1     0     0
SMALL
abcg2


@<TRIPOS>ATOM
      1 O01        -16.2830    25.0140     1.0310 o          1 XFV      -0.506500
      2 S02        -15.2060    25.6470     0.2830 s6         1 XFV       1.042000
      3 O03        -14.6400    24.9310    -0.8570 o          1 XFV      -0.506500
      4 C04        -15.4460    27.3910    -0.1310 cy         1 XFV      -0.280900
      5 C05        -14.0190    27.6670     0.3810 cy         1 XFV      -0.056400
      6 C06        -13.8770    26.4050     1.2540 cy         1 XFV      -0.280900
      7 H042       -15.6640    27.5860    -1.1790 h1         1 XFV       0.109450
      8 H041       -16.2180    27.8180     0.5090 h1         1 XFV       0.109450
      9 H052       -13.3000    27.6680    -0.4350 hc         1 XFV       0.076200
     10 H051       -13.9260    28.5960     0.9370 hc         1 XFV       0.076200
     11 H062       -12.9320    25.8670     1.2310 h1         1 XFV       0.109450
     12 H061       -14.2070    26.5580     2.2810 h1         1 XFV       0.109450
@<TRIPOS>BOND
     1     1     2 2   
     2     2     3 2   
     3     2     4 1   
     4     2     6 1   
     5     4     5 1   
     6     4     7 1   
     7     4     8 1   
     8     5     6 1   
     9     5     9 1   
    10     5    10 1   
    11     6    11 1   
    12     6    12 1   
@<TRIPOS>SUBSTRUCTURE
     1 XFV         1 TEMP              0 ****  ****    0 ROOT
