@<TRIPOS>MOLECULE
XFV
   12    12     1     0     0
SMALL
No Charge or Current Charge


@<TRIPOS>ATOM
      1 O01        -16.3770    25.2840     1.3490 o          1 XFV      -0.506500
      2 S02        -15.3270    25.5630     0.3600 s6         1 XFV       1.042000
      3 O03        -14.9710    24.6230    -0.7110 o          1 XFV      -0.506500
      4 C04        -15.3170    27.2890    -0.1870 cy         1 XFV      -0.280900
      5 C05        -14.0140    27.8670     0.5170 cy         1 XFV      -0.056400
      6 C06        -13.8840    26.3860     1.0810 cy         1 XFV      -0.280900
      7 H042       -15.2680    27.3210    -1.2790 h1         1 XFV       0.109450
      8 H041       -16.2380    27.7770     0.1420 h1         1 XFV       0.109450
      9 H052       -13.2130    28.1850    -0.1610 hc         1 XFV       0.076200
     10 H051       -14.1900    28.6450     1.2700 hc         1 XFV       0.076200
     11 H062       -12.9750    25.8760     0.7510 h1         1 XFV       0.109450
     12 H061       -13.9450    26.3320     2.1720 h1         1 XFV       0.109450
@<TRIPOS>BOND
     1     1     2 2   
     2     2     3 2   
     3     2     4 1   
     4     2     6 1   
     5     4     5 1   
     6     4     7 1   
     7     4     8 1   
     8     5     6 1   
     9     5     9 1   
    10     5    10 1   
    11     6    11 1   
    12     6    12 1   
@<TRIPOS>SUBSTRUCTURE
     1 XFV         1 TEMP              0 ****  ****    0 ROOT
