@<TRIPOS>MOLECULE
XFW
   22    21     1     0     0
SMALL
bcc


@<TRIPOS>ATOM
      1 C           -6.6970     0.2610    15.6740 c          1 XFW       0.924600
      2 O           -7.5720     1.1370    15.5610 o          1 XFW      -0.828800
      3 CA          -6.4410    -0.3030    17.0980 c3         1 XFW       0.020500
      4 CB          -7.7210    -0.7160    17.8240 c3         1 XFW      -0.060400
      5 CG          -8.2420    -2.1300    17.5690 c3         1 XFW      -0.097400
      6 CD          -8.6080    -2.4990    16.1240 c3         1 XFW       0.392700
      7 NE1         -9.5270    -3.6290    16.1680 n8         1 XFW      -0.918300
      8 NE2         -7.5000    -2.9030    15.2780 n8         1 XFW      -0.918300
      9 N           -5.8010     0.7660    17.8720 n8         1 XFW      -0.863800
     10 HA          -5.7880    -1.1850    17.0100 h1         1 XFW      -0.004300
     11 HB2         -7.5410    -0.6430    18.9020 hc         1 XFW       0.036200
     12 HB3         -8.5020     0.0170    17.6050 hc         1 XFW       0.036200
     13 HG2         -9.1320    -2.2520    18.1950 hc         1 XFW       0.021200
     14 HG3         -7.5180    -2.8660    17.9350 hc         1 XFW       0.021200
     15 HD2         -9.0560    -1.6140    15.6460 h2         1 XFW       0.053700
     16 HE12       -10.3700    -3.3680    16.6640 hn         1 XFW       0.349550
     17 HE13        -9.8110    -3.8560    15.2230 hn         1 XFW       0.349550
     18 HE22        -6.9000    -2.1140    15.0640 hn         1 XFW       0.349550
     19 HE23        -6.9290    -3.5810    15.7710 hn         1 XFW       0.349550
     20 H           -5.5290     0.3960    18.7760 hn         1 XFW       0.308300
     21 OXT         -5.9730    -0.1920    14.7560 o          1 XFW      -0.828800
     22 H2          -4.9340     1.0380    17.4240 hn         1 XFW       0.308300
@<TRIPOS>BOND
     1     1     2 1   
     2     1     3 1   
     3     1    21 1   
     4     3     4 1   
     5     3     9 1   
     6     3    10 1   
     7     4     5 1   
     8     4    11 1   
     9     4    12 1   
    10     5     6 1   
    11     5    13 1   
    12     5    14 1   
    13     6     7 1   
    14     6     8 1   
    15     6    15 1   
    16     7    16 1   
    17     7    17 1   
    18     8    18 1   
    19     8    19 1   
    20     9    20 1   
    21     9    22 1   
@<TRIPOS>SUBSTRUCTURE
     1 XFW         1 TEMP              0 ****  ****    0 ROOT
