@<TRIPOS>MOLECULE
XFW
   22    21     1     0     0
SMALL
No Charge or Current Charge


@<TRIPOS>ATOM
      1 C           -6.6930     0.1600    15.5840 c          1 XFW       0.924600
      2 O           -7.5060     1.0380    15.3090 o          1 XFW      -0.828800
      3 CA          -6.4610    -0.2480    17.1100 c3         1 XFW       0.020500
      4 CB          -7.7810    -0.6840    17.8150 c3         1 XFW      -0.060400
      5 CG          -8.2980    -2.1190    17.5100 c3         1 XFW      -0.097400
      6 CD          -8.6090    -2.4460    16.0260 c3         1 XFW       0.392700
      7 NE1         -9.4640    -3.5890    15.9080 n8         1 XFW      -0.918300
      8 NE2         -7.4630    -2.9260    15.3140 n8         1 XFW      -0.918300
      9 N           -5.7480     0.7700    17.9660 n8         1 XFW      -0.863800
     10 HA          -5.7970    -1.1230    17.1090 h1         1 XFW      -0.004300
     11 HB2         -7.6380    -0.6270    18.9010 hc         1 XFW       0.036200
     12 HB3         -8.5730     0.0380    17.5830 hc         1 XFW       0.036200
     13 HG2         -9.2160    -2.2550    18.0970 hc         1 XFW       0.021200
     14 HG3         -7.5800    -2.8480    17.9090 hc         1 XFW       0.021200
     15 HD2         -9.0650    -1.5900    15.5070 h2         1 XFW       0.053700
     16 HE12        -9.6300    -3.9690    16.8410 hn         1 XFW       0.349550
     17 HE13       -10.3730    -3.2870    15.5520 hn         1 XFW       0.349550
     18 HE22        -6.9700    -2.1210    14.9070 hn         1 XFW       0.349550
     19 HE23        -6.8130    -3.3190    15.9960 hn         1 XFW       0.349550
     20 H           -5.5730     0.3700    18.8930 hn         1 XFW       0.308300
     21 OXT         -6.0240    -0.4030    14.7230 o          1 XFW      -0.828800
     22 H2          -4.8150     0.9450    17.5780 hn         1 XFW       0.308300
@<TRIPOS>BOND
     1     1     2 1   
     2     1     3 1   
     3     1    21 1   
     4     3     4 1   
     5     3     9 1   
     6     3    10 1   
     7     4     5 1   
     8     4    11 1   
     9     4    12 1   
    10     5     6 1   
    11     5    13 1   
    12     5    14 1   
    13     6     7 1   
    14     6     8 1   
    15     6    15 1   
    16     7    16 1   
    17     7    17 1   
    18     8    18 1   
    19     8    19 1   
    20     9    20 1   
    21     9    22 1   
@<TRIPOS>SUBSTRUCTURE
     1 XFW         1 TEMP              0 ****  ****    0 ROOT
