@<TRIPOS>MOLECULE
XFZ
   32    32     1     0     0
SMALL
No Charge or Current Charge


@<TRIPOS>ATOM
      1 NAA         30.1770     5.6340    -4.2640 nv         1 XFZ      -1.054200
      2 CAB         29.6980     6.3160    -3.2490 c2         1 XFZ       0.842100
      3 NAC         29.7810     5.5940    -2.1600 nv         1 XFZ      -1.054200
      4 NAD         29.7240     7.6030    -3.1970 ne         1 XFZ      -0.594700
      5 NAE         29.9360     8.3400    -4.3920 ne         1 XFZ      -0.427200
      6 CAF         29.9650     9.6470    -4.2490 cf         1 XFZ       0.445300
      7 CAG         30.1630    10.5830    -5.3810 ca         1 XFZ      -0.138400
      8 CAR         30.3250    10.1210    -6.7080 ca         1 XFZ      -0.050000
      9 CAH         30.1920    11.9690    -5.1310 ca         1 XFZ      -0.090000
     10 CAI         30.3790    12.8790    -6.1840 ca         1 XFZ      -0.121000
     11 CAJ         30.5400    12.4130    -7.4980 ca         1 XFZ      -0.090000
     12 CAK         30.5150    11.0320    -7.7730 ca         1 XFZ      -0.138400
     13 CAL         30.6880    10.5660    -9.1860 ce         1 XFZ       0.445300
     14 NAM         30.6670     9.2900    -9.5260 nf         1 XFZ      -0.427200
     15 NAN         30.8540     8.9960   -10.8800 nf         1 XFZ      -0.594700
     16 CAO         30.8580     7.8110   -11.3890 c2         1 XFZ       0.842100
     17 NAQ         30.6010     7.6570   -12.6490 nv         1 XFZ      -1.054200
     18 NAP         30.2300     6.8250   -10.8060 nv         1 XFZ      -1.054200
     19 H1          29.4490     5.0800    -4.6920 hn         1 XFZ       0.483125
     20 H2          29.7480     4.6100    -2.3720 hn         1 XFZ       0.483125
     21 H3          29.1410     5.9070    -1.4440 hn         1 XFZ       0.483125
     22 H5          29.8430    10.1160    -3.2650 h4         1 XFZ      -0.009200
     23 H6          30.3050     9.0530    -6.9120 ha         1 XFZ       0.131000
     24 H7          30.0690    12.3460    -4.1170 ha         1 XFZ       0.112000
     25 H8          30.4000    13.9470    -5.9800 ha         1 XFZ       0.112000
     26 H9          30.6840    13.1290    -8.3050 ha         1 XFZ       0.112000
     27 H10         30.8350    11.3420    -9.9420 h4         1 XFZ      -0.009200
     28 H12         29.8470     6.9900   -12.6990 hn         1 XFZ       0.483125
     29 H13         29.9820     7.1650    -9.8860 hn         1 XFZ       0.483125
     30 H14         30.8250     6.0100   -10.7500 hn         1 XFZ       0.483125
     31 H15         30.5270     6.3250    -4.9140 hn         1 XFZ       0.483125
     32 H4          30.3640     8.5520   -13.0500 hn         1 XFZ       0.483125
@<TRIPOS>BOND
     1     1     2 1   
     2     1    19 1   
     3     1    31 1   
     4     2     3 1   
     5     2     4 2   
     6     3    20 1   
     7     3    21 1   
     8     4     5 1   
     9     5     6 2   
    10     6     7 1   
    11     6    22 1   
    12     7     8 ar  
    13     7     9 ar  
    14     8    12 ar  
    15     8    23 1   
    16     9    10 ar  
    17     9    24 1   
    18    10    11 ar  
    19    10    25 1   
    20    11    12 ar  
    21    11    26 1   
    22    12    13 1   
    23    13    14 2   
    24    13    27 1   
    25    14    15 1   
    26    15    16 2   
    27    16    17 1   
    28    16    18 1   
    29    17    28 1   
    30    17    32 1   
    31    18    29 1   
    32    18    30 1   
@<TRIPOS>SUBSTRUCTURE
     1 XFZ         1 TEMP              0 ****  ****    0 ROOT
