@<TRIPOS>MOLECULE
XFZ
   32    32     1     0     0
SMALL
abcg2


@<TRIPOS>ATOM
      1 NAA         29.9780     5.8330    -4.7880 nv         1 XFZ      -1.054200
      2 CAB         29.8410     6.3800    -3.5650 c2         1 XFZ       0.842100
      3 NAC         29.7330     5.5340    -2.5130 nv         1 XFZ      -1.054200
      4 NAD         29.8790     7.6660    -3.3060 ne         1 XFZ      -0.594700
      5 NAE         30.0240     8.4080    -4.4280 ne         1 XFZ      -0.427200
      6 CAF         30.0870     9.6710    -4.2590 cf         1 XFZ       0.445300
      7 CAG         30.2300    10.5950    -5.3810 ca         1 XFZ      -0.138400
      8 CAR         30.3140    10.1580    -6.7020 ca         1 XFZ      -0.050000
      9 CAH         30.2790    11.9680    -5.1190 ca         1 XFZ      -0.090000
     10 CAI         30.4080    12.8770    -6.1570 ca         1 XFZ      -0.121000
     11 CAJ         30.4890    12.4320    -7.4680 ca         1 XFZ      -0.090000
     12 CAK         30.4430    11.0630    -7.7540 ca         1 XFZ      -0.138400
     13 CAL         30.5300    10.6350    -9.1480 ce         1 XFZ       0.445300
     14 NAM         30.5000     9.4040    -9.4790 nf         1 XFZ      -0.427200
     15 NAN         30.5910     9.1460   -10.8070 nf         1 XFZ      -0.594700
     16 CAO         30.5150     7.8650   -11.0690 c2         1 XFZ       0.842100
     17 NAQ         30.7070     7.4710   -12.3520 nv         1 XFZ      -1.054200
     18 NAP         30.2560     6.8980   -10.1630 nv         1 XFZ      -1.054200
     19 H1          29.7190     4.8760    -4.9530 hn         1 XFZ       0.483125
     20 H2          29.3980     4.5970    -2.6670 hn         1 XFZ       0.483125
     21 H3          29.4490     5.9490    -1.6410 hn         1 XFZ       0.483125
     22 H5          30.0340    10.1090    -3.2600 h4         1 XFZ      -0.009200
     23 H6          30.2790     9.0980    -6.9140 ha         1 XFZ       0.131000
     24 H7          30.2140    12.3220    -4.0960 ha         1 XFZ       0.112000
     25 H8          30.4450    13.9380    -5.9450 ha         1 XFZ       0.112000
     26 H9          30.5880    13.1460    -8.2770 ha         1 XFZ       0.112000
     27 H10         30.6210    11.4200    -9.9020 h4         1 XFZ      -0.009200
     28 H12         30.2970     6.6010   -12.6510 hn         1 XFZ       0.483125
     29 H13         30.3160     7.1730    -9.1960 hn         1 XFZ       0.483125
     30 H14         30.5260     5.9510   -10.3700 hn         1 XFZ       0.483125
     31 H15         29.9390     6.4600    -5.5740 hn         1 XFZ       0.483125
     32 H4          30.6840     8.2030   -13.0430 hn         1 XFZ       0.483125
@<TRIPOS>BOND
     1     1     2 1   
     2     1    19 1   
     3     1    31 1   
     4     2     3 1   
     5     2     4 2   
     6     3    20 1   
     7     3    21 1   
     8     4     5 1   
     9     5     6 2   
    10     6     7 1   
    11     6    22 1   
    12     7     8 ar  
    13     7     9 ar  
    14     8    12 ar  
    15     8    23 1   
    16     9    10 ar  
    17     9    24 1   
    18    10    11 ar  
    19    10    25 1   
    20    11    12 ar  
    21    11    26 1   
    22    12    13 1   
    23    13    14 2   
    24    13    27 1   
    25    14    15 1   
    26    15    16 2   
    27    16    17 1   
    28    16    18 1   
    29    17    28 1   
    30    17    32 1   
    31    18    29 1   
    32    18    30 1   
@<TRIPOS>SUBSTRUCTURE
     1 XFZ         1 TEMP              0 ****  ****    0 ROOT
