@<TRIPOS>MOLECULE
XG1
   34    36     1     0     0
SMALL
No Charge or Current Charge


@<TRIPOS>ATOM
      1 NAR          1.0410     3.3780    -0.5980 nv         1 XG1      -1.089900
      2 CAG          1.2110     2.0730    -0.3840 ca         1 XG1       0.688900
      3 NAI          2.4850     1.8010    -0.1050 nb         1 XG1      -0.792000
      4 CAA          2.8150     0.4980     0.1270 ca         1 XG1       0.317000
      5 CAC          4.1480     0.1590     0.4310 ca         1 XG1      -0.101000
      6 CAE          4.5200    -1.1760     0.6740 ca         1 XG1      -0.101000
      7 CAF          3.5580    -2.1980     0.6150 ca         1 XG1      -0.131000
      8 CAD          2.2230    -1.8890     0.3120 ca         1 XG1      -0.083000
      9 CAB          1.8530    -0.5530     0.0700 ca         1 XG1      -0.061000
     10 CAJ          0.5310    -0.1970    -0.2370 ca         1 XG1      -0.098000
     11 CAM         -0.6630    -0.9530    -0.3840 cc         1 XG1      -0.194100
     12 CAH          0.1900     1.1060    -0.4690 ca         1 XG1      -0.152000
     13 NAK         -1.1710     1.2760    -0.7680 nc         1 XG1      -0.266400
     14 NAL         -1.6580    -0.0350    -0.7020 na         1 XG1       0.128500
     15 CAN         -3.0800    -0.3200    -0.9490 c3         1 XG1       0.080600
     16 CAO         -3.9090    -0.4200     0.3500 c3         1 XG1      -0.097400
     17 CAP         -5.4010    -0.7220     0.0900 c3         1 XG1      -0.074400
     18 CAQ         -6.2300    -0.8220     1.3850 c3         1 XG1      -0.089100
     19 H1           1.9020     3.8670    -0.8040 hn         1 XG1       0.501000
     20 H2           0.2360     3.6300    -1.1590 hn         1 XG1       0.501000
     21 H3           4.8990     0.9420     0.4800 ha         1 XG1       0.124000
     22 H4           5.5550    -1.4170     0.9080 ha         1 XG1       0.110000
     23 H5           3.8490    -3.2300     0.8030 ha         1 XG1       0.110000
     24 H6           1.4830    -2.6850     0.2670 ha         1 XG1       0.104000
     25 H7          -0.8840    -2.0100    -0.2930 h4         1 XG1       0.229000
     26 H8          -3.4910     0.4730    -1.5860 h1         1 XG1       0.064700
     27 H9          -3.1510    -1.2640    -1.5020 h1         1 XG1       0.064700
     28 H10         -3.4860    -1.2060     0.9870 hc         1 XG1       0.059200
     29 H11         -3.8220     0.5230     0.9040 hc         1 XG1       0.059200
     30 H12         -5.8270     0.0640    -0.5460 hc         1 XG1       0.038700
     31 H13         -5.4910    -1.6650    -0.4640 hc         1 XG1       0.038700
     32 H14         -7.2800    -1.0370     1.1520 hc         1 XG1       0.036033
     33 H15         -5.8510    -1.6250     2.0290 hc         1 XG1       0.036033
     34 H16         -6.1900     0.1200     1.9460 hc         1 XG1       0.036033
@<TRIPOS>BOND
     1     1     2 1   
     2     1    19 1   
     3     1    20 1   
     4     2     3 ar  
     5     2    12 ar  
     6     3     4 ar  
     7     4     5 ar  
     8     4     9 ar  
     9     5     6 ar  
    10     5    21 1   
    11     6     7 ar  
    12     6    22 1   
    13     7     8 ar  
    14     7    23 1   
    15     8     9 ar  
    16     8    24 1   
    17     9    10 ar  
    18    10    11 2   
    19    10    12 ar  
    20    11    14 1   
    21    11    25 1   
    22    12    13 2   
    23    13    14 1   
    24    14    15 1   
    25    15    16 1   
    26    15    26 1   
    27    15    27 1   
    28    16    17 1   
    29    16    28 1   
    30    16    29 1   
    31    17    18 1   
    32    17    30 1   
    33    17    31 1   
    34    18    32 1   
    35    18    33 1   
    36    18    34 1   
@<TRIPOS>SUBSTRUCTURE
     1 XG1         1 TEMP              0 ****  ****    0 ROOT
