@<TRIPOS>MOLECULE
XG1
   34    36     1     0     0
SMALL
bcc


@<TRIPOS>ATOM
      1 NAR          0.6000     3.2250    -0.3440 nv         1 XG1      -0.979500
      2 CAG          1.0370     1.9620    -0.2340 ca         1 XG1       0.754200
      3 NAI          2.2880     1.7120     0.0250 nb         1 XG1      -0.792000
      4 CAA          2.7330     0.4170     0.1460 ca         1 XG1       0.447600
      5 CAC          4.0950     0.2160     0.4270 ca         1 XG1      -0.184300
      6 CAE          4.6150    -1.0540     0.5640 ca         1 XG1      -0.119000
      7 CAF          3.7920    -2.1750     0.4250 ca         1 XG1      -0.149000
      8 CAD          2.4510    -2.0060     0.1470 ca         1 XG1      -0.101000
      9 CAB          1.9080    -0.7250     0.0060 ca         1 XG1      -0.126300
     10 CAJ          0.5300    -0.4490    -0.2770 ca         1 XG1      -0.098000
     11 CAM         -0.6210    -1.1880    -0.4900 cc         1 XG1      -0.144100
     12 CAH          0.0970     0.8800    -0.3960 ca         1 XG1      -0.217300
     13 NAK         -1.2010     0.9620    -0.6590 nc         1 XG1      -0.266400
     14 NAL         -1.6030    -0.2960    -0.7130 na         1 XG1       0.157800
     15 CAN         -3.0080    -0.5960    -0.9220 c3         1 XG1       0.051300
     16 CAO         -3.8510    -0.2840     0.3060 c3         1 XG1      -0.097400
     17 CAP         -5.3190    -0.6190     0.0760 c3         1 XG1      -0.074400
     18 CAQ         -6.1760    -0.3200     1.2980 c3         1 XG1      -0.089100
     19 H1           1.2400     3.9940    -0.2460 hn         1 XG1       0.445800
     20 H2          -0.3570     3.4280    -0.5740 hn         1 XG1       0.445800
     21 H3           4.7320     1.0850     0.5340 ha         1 XG1       0.142000
     22 H4           5.6680    -1.1820     0.7790 ha         1 XG1       0.128000
     23 H5           4.2030    -3.1700     0.5340 ha         1 XG1       0.128000
     24 H6           1.8080    -2.8710     0.0370 ha         1 XG1       0.122000
     25 H7          -0.8080    -2.2490    -0.5010 h4         1 XG1       0.179000
     26 H8          -3.3490    -0.0240    -1.7850 h1         1 XG1       0.064700
     27 H9          -3.0760    -1.6530    -1.1790 h1         1 XG1       0.064700
     28 H10         -3.4700    -0.8530     1.1600 hc         1 XG1       0.059200
     29 H11         -3.7480     0.7740     0.5580 hc         1 XG1       0.059200
     30 H12         -5.6920    -0.0530    -0.7820 hc         1 XG1       0.038700
     31 H13         -5.4150    -1.6760    -0.1890 hc         1 XG1       0.038700
     32 H14         -7.2210    -0.5760     1.1230 hc         1 XG1       0.036033
     33 H15         -5.8370    -0.8880     2.1660 hc         1 XG1       0.036033
     34 H16         -6.1340     0.7380     1.5610 hc         1 XG1       0.036033
@<TRIPOS>BOND
     1     1     2 1   
     2     1    19 1   
     3     1    20 1   
     4     2     3 ar  
     5     2    12 ar  
     6     3     4 ar  
     7     4     5 ar  
     8     4     9 ar  
     9     5     6 ar  
    10     5    21 1   
    11     6     7 ar  
    12     6    22 1   
    13     7     8 ar  
    14     7    23 1   
    15     8     9 ar  
    16     8    24 1   
    17     9    10 ar  
    18    10    11 2   
    19    10    12 ar  
    20    11    14 1   
    21    11    25 1   
    22    12    13 2   
    23    13    14 1   
    24    14    15 1   
    25    15    16 1   
    26    15    26 1   
    27    15    27 1   
    28    16    17 1   
    29    16    28 1   
    30    16    29 1   
    31    17    18 1   
    32    17    30 1   
    33    17    31 1   
    34    18    32 1   
    35    18    33 1   
    36    18    34 1   
@<TRIPOS>SUBSTRUCTURE
     1 XG1         1 TEMP              0 ****  ****    0 ROOT
