@<TRIPOS>MOLECULE
XG3
   32    33     1     0     0
SMALL
abcg2


@<TRIPOS>ATOM
      1 C          139.9640   155.3640   142.7240 ca         1 XG3      -0.069000
      2 C1         139.1890   154.4640   142.0140 ca         1 XG3      -0.091000
      3 C2         139.2770   154.4110   140.6330 ca         1 XG3       0.100000
      4 C3         140.1540   155.2380   139.9290 ca         1 XG3      -0.013000
      5 C4         140.9440   156.1240   140.6570 ca         1 XG3      -0.058000
      6 O          140.2380   157.3810   138.0990 o          1 XG3      -0.580100
      7 C5         140.8380   156.1970   142.0370 ca         1 XG3      -0.175300
      8 C6         141.7370   157.1330   142.7860 c3         1 XG3       0.359300
      9 N          140.2600   155.1430   138.5430 ns         1 XG3      -0.174000
     10 C7         140.3040   156.2330   137.7090 c          1 XG3       0.654100
     11 C10        139.7380   158.2420   133.6110 ca         1 XG3      -0.141000
     12 C11        140.9650   158.8650   133.4730 ca         1 XG3      -0.056000
     13 C12        142.0170   158.5080   134.3050 ca         1 XG3       0.083000
     14 C13        141.8500   157.5320   135.2700 ca         1 XG3      -0.056000
     15 C8         140.6180   156.9090   135.4120 ca         1 XG3      -0.145000
     16 C9         139.5500   157.2610   134.5820 ca         1 XG3       0.164100
     17 F          141.2200   157.5030   143.9610 f          1 XG3      -0.110000
     18 F1         142.9240   156.5660   143.0500 f          1 XG3      -0.110000
     19 F2         141.9910   158.2490   142.0950 f          1 XG3      -0.110000
     20 N1         140.4140   155.9010   136.3840 ns         1 XG3      -0.191000
     21 CL1        138.2750   153.2980   139.7720 cl         1 XG3      -0.192000
     22 H          139.8730   155.4000   143.8000 ha         1 XG3       0.139000
     23 H1         138.5040   153.8100   142.5360 ha         1 XG3       0.138000
     24 H2         141.6520   156.7450   140.1290 ha         1 XG3       0.153000
     25 H3         140.1290   154.2290   138.1360 hn         1 XG3       0.161000
     26 H8         138.3680   156.0300   135.4050 ho         1 XG3       0.477000
     27 H5         138.9160   158.5180   132.9640 ha         1 XG3       0.138000
     28 H6         141.0980   159.6280   132.7180 ha         1 XG3       0.134000
     29 H7         142.6680   157.2460   135.9190 ha         1 XG3       0.134000
     30 H4         140.6510   154.9520   136.1280 hn         1 XG3       0.153000
     31 CL         143.5570   159.2880   134.1310 cl         1 XG3      -0.195000
     32 O1         138.3470   156.6820   134.6900 oh         1 XG3      -0.520100
@<TRIPOS>BOND
     1     1     2 ar  
     2     1     7 ar  
     3     1    22 1   
     4     2     3 ar  
     5     2    23 1   
     6     3     4 ar  
     7     3    21 1   
     8     4     5 ar  
     9     4     9 1   
    10     5     7 ar  
    11     5    24 1   
    12     6    10 2   
    13     7     8 1   
    14     8    17 1   
    15     8    18 1   
    16     8    19 1   
    17     9    10 1   
    18     9    25 1   
    19    10    20 1   
    20    11    12 ar  
    21    11    16 ar  
    22    11    27 1   
    23    12    13 ar  
    24    12    28 1   
    25    13    14 ar  
    26    13    31 1   
    27    14    15 ar  
    28    14    29 1   
    29    15    16 ar  
    30    15    20 1   
    31    16    32 1   
    32    20    30 1   
    33    26    32 1   
@<TRIPOS>SUBSTRUCTURE
     1 XG3         1 TEMP              0 ****  ****    0 ROOT
