@<TRIPOS>MOLECULE
XG3
   32    33     1     0     0
SMALL
No Charge or Current Charge


@<TRIPOS>ATOM
      1 C          140.2110   154.9480   142.8760 ca         1 XG3      -0.069000
      2 C1         139.4280   154.1340   142.0440 ca         1 XG3      -0.091000
      3 C2         139.3540   154.3920   140.6670 ca         1 XG3       0.100000
      4 C3         140.0650   155.4710   140.0990 ca         1 XG3      -0.013000
      5 C4         140.8560   156.2840   140.9440 ca         1 XG3      -0.058000
      6 O          141.0580   157.6620   138.2330 o          1 XG3      -0.580100
      7 C5         140.9280   156.0360   142.3330 ca         1 XG3      -0.175300
      8 C6         141.8010   156.9310   143.2220 c3         1 XG3       0.359300
      9 N          139.9580   155.6800   138.6920 ns         1 XG3      -0.174000
     10 C7         140.4290   156.6810   137.8550 c          1 XG3       0.654100
     11 C10        139.9610   157.7350   133.0040 ca         1 XG3      -0.141000
     12 C11        141.1550   158.4710   132.9340 ca         1 XG3      -0.056000
     13 C12        141.9880   158.5500   134.0600 ca         1 XG3       0.083000
     14 C13        141.6330   157.8960   135.2520 ca         1 XG3      -0.056000
     15 C8         140.4300   157.1570   135.3350 ca         1 XG3      -0.145000
     16 C9         139.5960   157.0840   134.1930 ca         1 XG3       0.164100
     17 F          141.4950   156.8260   144.5360 f          1 XG3      -0.110000
     18 F1         143.1110   156.6190   143.0970 f          1 XG3      -0.110000
     19 F2         141.6740   158.2380   142.9000 f          1 XG3      -0.110000
     20 N1         140.0820   156.4520   136.5290 ns         1 XG3      -0.191000
     21 Cl1        138.3580   153.3400   139.6600 cl         1 XG3      -0.192000
     22 H          140.2570   154.7250   143.9400 ha         1 XG3       0.139000
     23 H1         138.8770   153.2980   142.4670 ha         1 XG3       0.138000
     24 H2         141.4300   157.1110   140.5390 ha         1 XG3       0.153000
     25 H3         139.4390   154.9540   138.2160 hn         1 XG3       0.161000
     26 H8         138.1370   156.3020   135.1590 ho         1 XG3       0.477000
     27 H5         139.3120   157.6740   132.1340 ha         1 XG3       0.138000
     28 H6         141.4350   158.9760   132.0130 ha         1 XG3       0.134000
     29 H7         142.3140   157.9550   136.0960 ha         1 XG3       0.134000
     30 H4         139.5510   155.6040   136.3780 hn         1 XG3       0.153000
     31 Cl         143.4910   159.4610   133.9740 cl         1 XG3      -0.195000
     32 O1         138.4140   156.4030   134.2250 oh         1 XG3      -0.520100
@<TRIPOS>BOND
     1     1     2 ar  
     2     1     7 ar  
     3     1    22 1   
     4     2     3 ar  
     5     2    23 1   
     6     3     4 ar  
     7     3    21 1   
     8     4     5 ar  
     9     4     9 1   
    10     5     7 ar  
    11     5    24 1   
    12     6    10 2   
    13     7     8 1   
    14     8    17 1   
    15     8    18 1   
    16     8    19 1   
    17     9    10 1   
    18     9    25 1   
    19    10    20 1   
    20    11    12 ar  
    21    11    16 ar  
    22    11    27 1   
    23    12    13 ar  
    24    12    28 1   
    25    13    14 ar  
    26    13    31 1   
    27    14    15 ar  
    28    14    29 1   
    29    15    16 ar  
    30    15    20 1   
    31    16    32 1   
    32    20    30 1   
    33    26    32 1   
@<TRIPOS>SUBSTRUCTURE
     1 XG3         1 TEMP              0 ****  ****    0 ROOT
