@<TRIPOS>MOLECULE
XG5
   60    62     1     0     0
SMALL
No Charge or Current Charge


@<TRIPOS>ATOM
      1 N1         -35.7410   -30.3890   -68.8380 n3         1 XG5      -0.720600
      2 N3         -43.8500   -30.8170   -68.9360 nu         1 XG5      -0.477700
      3 C4         -33.2010   -30.4960   -68.7270 c6         1 XG5       0.131300
      4 C5         -34.5140   -29.9150   -68.0820 c6         1 XG5       0.172500
      5 C6         -34.4070   -28.3480   -67.9390 c3         1 XG5       0.157600
      6 C7         -37.0400   -29.8030   -68.4020 c3         1 XG5       0.184800
      7 C8         -37.4530   -30.1170   -66.9460 c3         1 XG5      -0.168700
      8 C10        -41.0750   -29.5100   -66.6390 ca         1 XG5       0.305300
      9 C13        -43.9840   -32.1550   -69.2610 cc         1 XG5       0.417900
     10 C15        -45.3220   -34.0860   -69.9020 cd         1 XG5      -0.144600
     11 C17        -42.8890   -34.3480   -69.4650 cd         1 XG5      -0.216600
     12 C20        -38.8210   -28.2060   -65.9000 ca         1 XG5       0.289900
     13 C1         -33.2820   -32.0460   -68.8070 c6         1 XG5       0.177300
     14 C11        -42.3410   -30.2400   -67.0570 c3         1 XG5      -0.153700
     15 C12        -42.6380   -30.0740   -68.5610 c3         1 XG5       0.080600
     16 C14        -45.2720   -32.7120   -69.6350 cc         1 XG5      -0.337700
     17 C16        -44.1560   -34.9260   -69.8380 cd         1 XG5       0.391900
     18 C18        -42.8220   -32.9970   -69.1840 cc         1 XG5      -0.351600
     19 C19        -41.1200   -28.2620   -65.9520 ca         1 XG5       0.291900
     20 C2         -34.5280   -32.4730   -69.6260 c6         1 XG5       0.169300
     21 C3         -35.8000   -31.8790   -68.9610 c6         1 XG5       0.134800
     22 C9         -38.7730   -29.4540   -66.5860 ca         1 XG5       0.314300
     23 N2         -39.9000   -30.1160   -66.9620 nb         1 XG5      -0.668000
     24 N4         -46.4610   -31.8730   -69.6990 no         1 XG5       0.668100
     25 N5         -44.3010   -36.2040   -70.1080 ne         1 XG5      -0.392400
     26 N6         -43.3230   -36.9150   -70.4380 n1         1 XG5       0.110700
     27 N7         -42.5300   -37.6570   -70.7760 n1         1 XG5      -0.028000
     28 N8         -39.9940   -27.5950   -65.5750 nb         1 XG5      -0.619000
     29 O1         -32.0770   -32.5730   -69.3940 oh         1 XG5      -0.646000
     30 O2         -34.6010   -33.9100   -69.7090 oh         1 XG5      -0.700000
     31 O3         -32.0060   -30.1200   -67.9970 oh         1 XG5      -0.736000
     32 O4         -34.2400   -27.6610   -69.1940 oh         1 XG5      -0.656000
     33 O5         -46.3420   -30.6730   -69.9730 o          1 XG5      -0.420000
     34 O6         -47.5550   -32.4450   -69.6390 o          1 XG5      -0.420000
     35 H2         -44.6930   -30.2720   -69.1070 hn         1 XG5       0.378000
     36 H3         -33.1420   -30.1140   -69.7590 h1         1 XG5       0.075700
     37 H4         -34.5660   -30.3100   -67.0570 h1         1 XG5       0.040700
     38 H5         -33.5620   -28.1180   -67.2770 h1         1 XG5       0.027200
     39 H6         -35.3010   -27.9750   -67.4220 h1         1 XG5       0.027200
     40 H7         -37.0240   -28.7120   -68.5350 h1         1 XG5       0.063700
     41 H8         -37.8380   -30.1660   -69.0640 h1         1 XG5       0.063700
     42 H9         -37.5360   -31.2010   -66.8090 hc         1 XG5       0.060700
     43 H10        -36.6740   -29.7750   -66.2550 hc         1 XG5       0.060700
     44 H11        -46.2600   -34.5590   -70.1800 ha         1 XG5       0.234000
     45 H12        -41.9970   -34.9640   -69.3920 ha         1 XG5       0.183000
     46 H13        -37.9060   -27.6910   -65.6110 h4         1 XG5       0.032100
     47 H14        -33.3930   -32.4320   -67.7830 h1         1 XG5       0.053700
     48 H15        -43.1960   -29.8690   -66.4800 hc         1 XG5       0.070700
     49 H16        -42.2480   -31.3050   -66.8150 hc         1 XG5       0.070700
     50 H17        -41.7780   -30.4070   -69.1590 h1         1 XG5       0.064200
     51 H18        -42.7840   -29.0070   -68.7800 h1         1 XG5       0.064200
     52 H19        -41.8700   -32.5670   -68.8920 ha         1 XG5       0.213000
     53 H20        -42.0710   -27.7930   -65.7050 h4         1 XG5       0.035100
     54 H21        -34.4420   -32.0450   -70.6360 h1         1 XG5       0.061700
     55 H22        -36.6730   -32.1710   -69.5630 h1         1 XG5       0.040700
     56 H23        -35.9240   -32.3390   -67.9700 h1         1 XG5       0.040700
     57 H28        -31.3610   -32.0110   -69.0180 ho         1 XG5       0.454000
     58 H29        -33.6670   -34.2000   -69.8410 ho         1 XG5       0.493000
     59 H30        -31.8230   -29.1750   -68.2150 ho         1 XG5       0.512000
     60 H31        -34.3040   -26.6980   -69.0070 ho         1 XG5       0.441000
@<TRIPOS>BOND
     1     1     4 1   
     2     1     6 1   
     3     1    21 1   
     4     2     9 2   
     5     2    15 1   
     6     2    35 1   
     7     3     4 1   
     8     3    13 1   
     9     3    31 1   
    10     3    36 1   
    11     4     5 1   
    12     4    37 1   
    13     5    32 1   
    14     5    38 1   
    15     5    39 1   
    16     6     7 1   
    17     6    40 1   
    18     6    41 1   
    19     7    22 1   
    20     7    42 1   
    21     7    43 1   
    22     8    14 1   
    23     8    19 ar  
    24     8    23 ar  
    25     9    16 1   
    26     9    18 1   
    27    10    16 2   
    28    10    17 1   
    29    10    44 1   
    30    11    17 1   
    31    11    18 2   
    32    11    45 1   
    33    12    22 ar  
    34    12    28 ar  
    35    12    46 1   
    36    13    20 1   
    37    13    29 1   
    38    13    47 1   
    39    14    15 1   
    40    14    48 1   
    41    14    49 1   
    42    15    50 1   
    43    15    51 1   
    44    16    24 1   
    45    17    25 2   
    46    18    52 1   
    47    19    28 ar  
    48    19    53 1   
    49    20    21 1   
    50    20    30 1   
    51    20    54 1   
    52    21    55 1   
    53    21    56 1   
    54    22    23 ar  
    55    24    33 1   
    56    24    34 1   
    57    25    26 1   
    58    26    27 3   
    59    29    57 1   
    60    30    58 1   
    61    31    59 1   
    62    32    60 1   
@<TRIPOS>SUBSTRUCTURE
     1 XG5         1 TEMP              0 ****  ****    0 ROOT
