@<TRIPOS>MOLECULE
XG5
   60    62     1     0     0
SMALL
abcg2


@<TRIPOS>ATOM
      1 N1         -36.5680   -30.4350   -68.7780 n3         1 XG5      -0.720600
      2 N3         -43.3390   -30.6710   -68.9970 nu         1 XG5      -0.477700
      3 C4         -34.3300   -31.2440   -69.2640 c6         1 XG5       0.131300
      4 C5         -35.1810   -30.3910   -68.3090 c6         1 XG5       0.172500
      5 C6         -34.6260   -28.9790   -68.2100 c3         1 XG5       0.157600
      6 C7         -37.4930   -29.5000   -68.1520 c3         1 XG5       0.184800
      7 C8         -37.6980   -29.6630   -66.6240 c3         1 XG5      -0.168700
      8 C10        -41.2820   -29.0690   -66.2900 ca         1 XG5       0.305300
      9 C13        -42.8530   -31.9040   -69.2360 cc         1 XG5       0.417900
     10 C15        -43.0440   -34.2150   -70.0850 cd         1 XG5      -0.144600
     11 C17        -40.9710   -33.4630   -69.1420 cd         1 XG5      -0.216600
     12 C20        -39.0500   -27.8610   -65.4410 ca         1 XG5       0.289900
     13 C1         -34.8450   -32.6720   -69.3760 c6         1 XG5       0.177300
     14 C11        -42.5070   -29.7500   -66.8220 c3         1 XG5      -0.153700
     15 C12        -42.5910   -29.6080   -68.3600 c3         1 XG5       0.080600
     16 C14        -43.6080   -32.9550   -69.8410 cc         1 XG5      -0.337700
     17 C16        -41.7410   -34.4790   -69.7410 cd         1 XG5       0.391900
     18 C18        -41.5090   -32.2270   -68.8990 cc         1 XG5      -0.351600
     19 C19        -41.3230   -27.9010   -65.5300 ca         1 XG5       0.291900
     20 C2         -36.3070   -32.6750   -69.7640 c6         1 XG5       0.169300
     21 C3         -37.0900   -31.7940   -68.7970 c6         1 XG5       0.134800
     22 C9         -38.9860   -29.0330   -66.1990 ca         1 XG5       0.314300
     23 N2         -40.1110   -29.6200   -66.6140 nb         1 XG5      -0.668000
     24 N4         -44.9720   -32.7830   -70.2340 no         1 XG5       0.668100
     25 N5         -41.2530   -35.7820   -70.0120 ne         1 XG5      -0.392400
     26 N6         -40.1130   -36.0720   -69.6690 n1         1 XG5       0.110700
     27 N7         -39.0870   -36.4600   -69.4040 n1         1 XG5      -0.028000
     28 N8         -40.2100   -27.3010   -65.1050 nb         1 XG5      -0.619000
     29 O1         -34.0870   -33.3980   -70.3390 oh         1 XG5      -0.646000
     30 O2         -36.7850   -34.0200   -69.7170 oh         1 XG5      -0.700000
     31 O3         -32.9740   -31.3510   -68.8130 oh         1 XG5      -0.736000
     32 O4         -34.6670   -28.3460   -69.4910 oh         1 XG5      -0.656000
     33 O5         -45.5380   -31.6980   -70.0150 o          1 XG5      -0.420000
     34 O6         -45.5650   -33.7150   -70.7830 o          1 XG5      -0.420000
     35 H2         -44.3120   -30.5240   -69.2170 hn         1 XG5       0.378000
     36 H3         -34.3540   -30.7860   -70.2550 h1         1 XG5       0.075700
     37 H4         -35.0850   -30.8280   -67.3000 h1         1 XG5       0.040700
     38 H5         -33.5980   -29.0470   -67.8460 h1         1 XG5       0.027200
     39 H6         -35.1920   -28.3980   -67.4780 h1         1 XG5       0.027200
     40 H7         -37.1740   -28.4790   -68.3650 h1         1 XG5       0.063700
     41 H8         -38.4590   -29.6410   -68.6390 h1         1 XG5       0.063700
     42 H9         -37.7440   -30.7260   -66.3800 hc         1 XG5       0.060700
     43 H10        -36.8640   -29.2300   -66.0720 hc         1 XG5       0.060700
     44 H11        -43.6520   -34.9780   -70.5430 ha         1 XG5       0.234000
     45 H12        -39.9420   -33.6500   -68.8650 ha         1 XG5       0.183000
     46 H13        -38.1420   -27.3760   -65.1020 h4         1 XG5       0.032100
     47 H14        -34.7500   -33.1510   -68.3910 h1         1 XG5       0.053700
     48 H15        -43.4090   -29.3510   -66.3590 hc         1 XG5       0.070700
     49 H16        -42.4440   -30.8110   -66.5700 hc         1 XG5       0.070700
     50 H17        -41.5840   -29.5720   -68.7770 h1         1 XG5       0.064200
     51 H18        -43.0790   -28.6690   -68.6170 h1         1 XG5       0.064200
     52 H19        -40.8900   -31.4800   -68.4250 ha         1 XG5       0.213000
     53 H20        -42.2710   -27.4490   -65.2610 h4         1 XG5       0.035100
     54 H21        -36.4030   -32.2790   -70.7810 h1         1 XG5       0.061700
     55 H22        -38.1340   -31.7620   -69.1130 h1         1 XG5       0.040700
     56 H23        -37.0610   -32.2750   -67.8060 h1         1 XG5       0.040700
     57 H28        -33.1570   -33.2320   -70.1340 ho         1 XG5       0.454000
     58 H29        -37.6750   -34.0380   -70.0900 ho         1 XG5       0.493000
     59 H30        -32.4610   -30.6270   -69.1900 ho         1 XG5       0.512000
     60 H31        -34.2550   -27.4780   -69.4090 ho         1 XG5       0.441000
@<TRIPOS>BOND
     1     1     4 1   
     2     1     6 1   
     3     1    21 1   
     4     2     9 2   
     5     2    15 1   
     6     2    35 1   
     7     3     4 1   
     8     3    13 1   
     9     3    31 1   
    10     3    36 1   
    11     4     5 1   
    12     4    37 1   
    13     5    32 1   
    14     5    38 1   
    15     5    39 1   
    16     6     7 1   
    17     6    40 1   
    18     6    41 1   
    19     7    22 1   
    20     7    42 1   
    21     7    43 1   
    22     8    14 1   
    23     8    19 ar  
    24     8    23 ar  
    25     9    16 1   
    26     9    18 1   
    27    10    16 2   
    28    10    17 1   
    29    10    44 1   
    30    11    17 1   
    31    11    18 2   
    32    11    45 1   
    33    12    22 ar  
    34    12    28 ar  
    35    12    46 1   
    36    13    20 1   
    37    13    29 1   
    38    13    47 1   
    39    14    15 1   
    40    14    48 1   
    41    14    49 1   
    42    15    50 1   
    43    15    51 1   
    44    16    24 1   
    45    17    25 2   
    46    18    52 1   
    47    19    28 ar  
    48    19    53 1   
    49    20    21 1   
    50    20    30 1   
    51    20    54 1   
    52    21    55 1   
    53    21    56 1   
    54    22    23 ar  
    55    24    33 1   
    56    24    34 1   
    57    25    26 1   
    58    26    27 3   
    59    29    57 1   
    60    30    58 1   
    61    31    59 1   
    62    32    60 1   
@<TRIPOS>SUBSTRUCTURE
     1 XG5         1 TEMP              0 ****  ****    0 ROOT
