@<TRIPOS>MOLECULE
XG7
   42    44     1     0     0
SMALL
No Charge or Current Charge


@<TRIPOS>ATOM
      1 C4           8.6030     8.7860   -12.7120 c          1 XG7       0.616700
      2 C14         13.6310     8.2310    -6.5760 ca         1 XG7      -0.101500
      3 C5           7.8040     8.7730   -14.0070 ca         1 XG7      -0.106600
      4 C6           6.4000     8.9450   -13.9590 ca         1 XG7      -0.104000
      5 C11         10.8250     7.8810   -10.5800 c          1 XG7       0.566200
      6 C7           5.6320     8.9390   -15.1350 ca         1 XG7      -0.080000
      7 C8           6.2550     8.7580   -16.3790 ca         1 XG7      -0.160000
      8 C9           7.6420     8.5800   -16.4500 ca         1 XG7       0.285000
      9 C10          8.4140     8.5870   -15.2760 ca         1 XG7      -0.159000
     10 C12         12.4310     7.6520    -8.6270 ca         1 XG7       0.051600
     11 C13         13.3040     8.5020    -7.9160 ca         1 XG7      -0.108500
     12 N1           9.9820     8.7110   -12.8510 ns         1 XG7      -0.401100
     13 N2           8.2460     8.3980   -17.6650 nv         1 XG7      -1.078000
     14 C3          10.9930     8.5380   -11.8840 cc         1 XG7      -0.147600
     15 N3          12.1020     7.9310   -10.0010 n          1 XG7      -0.181400
     16 C2          12.3000     8.9000   -12.0940 cd         1 XG7       0.111800
     17 O1           8.0530     8.8850   -11.6230 o          1 XG7      -0.568100
     18 O2           9.8250     7.3850   -10.0750 o          1 XG7      -0.511000
     19 C15         13.0880     7.1060    -5.9340 ca         1 XG7      -0.115000
     20 C16         12.2180     6.2540    -6.6320 ca         1 XG7      -0.101500
     21 C17         11.8900     6.5260    -7.9720 ca         1 XG7      -0.108500
     22 N4          13.0240     8.5350   -10.9500 na         1 XG7      -0.381400
     23 C18         14.4420     8.1040   -10.8900 c3         1 XG7       0.185100
     24 H12         14.3030     8.8950    -6.0350 ha         1 XG7       0.115000
     25 H5           5.8970     9.0870   -13.0040 ha         1 XG7       0.135000
     26 H6           4.5540     9.0750   -15.0800 ha         1 XG7       0.115000
     27 H7           5.6550     8.7540   -17.2860 ha         1 XG7       0.113000
     28 H10          9.4850     8.4380   -15.3670 ha         1 XG7       0.113000
     29 H11         13.7190     9.3840    -8.3970 ha         1 XG7       0.129000
     30 H4          10.2820     8.8420   -13.8090 hn         1 XG7       0.325500
     31 H9           9.2270     8.1280   -17.7120 hn         1 XG7       0.450500
     32 H8           7.6780     8.2580   -18.4990 hn         1 XG7       0.450500
     33 H3          13.1640     8.7370   -14.0630 hc         1 XG7       0.059700
     34 H1          12.2560    10.2360   -13.7910 hc         1 XG7       0.059700
     35 H2          13.8580    10.0350   -13.0740 hc         1 XG7       0.059700
     36 H13         13.3410     6.8960    -4.8970 ha         1 XG7       0.114000
     37 H14         11.7980     5.3810    -6.1370 ha         1 XG7       0.115000
     38 H15         11.2260     5.8500    -8.5030 ha         1 XG7       0.129000
     39 H17         14.8200     7.9160   -11.9030 h1         1 XG7       0.054367
     40 H18         15.0490     8.8910   -10.4250 h1         1 XG7       0.054367
     41 H16         14.5390     7.1800   -10.3060 h1         1 XG7       0.054367
     42 C1          12.9280     9.5090   -13.3210 c3         1 XG7      -0.050900
@<TRIPOS>BOND
     1     1     3 1   
     2     1    12 1   
     3     1    17 2   
     4     2    11 ar  
     5     2    19 ar  
     6     2    24 1   
     7     3     4 ar  
     8     3     9 ar  
     9     4     6 ar  
    10     4    25 1   
    11     5    14 1   
    12     5    15 1   
    13     5    18 2   
    14     6     7 ar  
    15     6    26 1   
    16     7     8 ar  
    17     7    27 1   
    18     8     9 ar  
    19     8    13 1   
    20     9    28 1   
    21    10    11 ar  
    22    10    15 1   
    23    10    21 ar  
    24    11    29 1   
    25    12    14 1   
    26    12    30 1   
    27    13    31 1   
    28    13    32 1   
    29    14    16 2   
    30    15    22 1   
    31    16    22 1   
    32    16    42 1   
    33    19    20 ar  
    34    19    36 1   
    35    20    21 ar  
    36    20    37 1   
    37    21    38 1   
    38    22    23 1   
    39    23    39 1   
    40    23    40 1   
    41    23    41 1   
    42    33    42 1   
    43    34    42 1   
    44    35    42 1   
@<TRIPOS>SUBSTRUCTURE
     1 XG7         1 TEMP              0 ****  ****    0 ROOT
