@<TRIPOS>MOLECULE
XG7
   42    44     1     0     0
SMALL
abcg2


@<TRIPOS>ATOM
      1 C4           9.0490     8.9630   -12.8890 c          1 XG7       0.616700
      2 C14         12.7640     8.1120    -6.6480 ca         1 XG7      -0.101500
      3 C5           8.1060     8.9430   -14.0470 ca         1 XG7      -0.106600
      4 C6           7.1230     9.9270   -14.1080 ca         1 XG7      -0.104000
      5 C11         11.1860     7.4470   -11.0330 c          1 XG7       0.566200
      6 C7           6.2370     9.9270   -15.1750 ca         1 XG7      -0.080000
      7 C8           6.3080     8.9590   -16.1630 ca         1 XG7      -0.160000
      8 C9           7.2800     7.9530   -16.1040 ca         1 XG7       0.285000
      9 C10          8.1780     7.9630   -15.0310 ca         1 XG7      -0.159000
     10 C12         12.4750     7.4070    -8.9260 ca         1 XG7       0.051600
     11 C13         12.6390     8.4270    -7.9930 ca         1 XG7      -0.108500
     12 N1          10.2940     8.4860   -13.1340 ns         1 XG7      -0.401100
     13 N2           7.3810     7.0060   -17.0980 nv         1 XG7      -1.078000
     14 C3          11.2540     8.3840   -12.1270 cc         1 XG7      -0.147600
     15 N3          12.3380     7.7020   -10.2980 n          1 XG7      -0.181400
     16 C2          12.3680     9.1460   -11.9720 cd         1 XG7       0.111800
     17 O1           8.7230     9.4040   -11.8010 o          1 XG7      -0.568100
     18 O2          10.3350     6.6250   -10.7340 o          1 XG7      -0.511000
     19 C15         12.7010     6.7900    -6.2270 ca         1 XG7      -0.115000
     20 C16         12.5290     5.7790    -7.1620 ca         1 XG7      -0.101500
     21 C17         12.4270     6.0800    -8.5130 ca         1 XG7      -0.108500
     22 N4          13.0150     8.7880   -10.8270 na         1 XG7      -0.381400
     23 C18         14.4670     8.7310   -10.7660 c3         1 XG7       0.185100
     24 H12         12.8980     8.9070    -5.9260 ha         1 XG7       0.115000
     25 H5           7.0560    10.6870   -13.3410 ha         1 XG7       0.135000
     26 H6           5.4750    10.6930   -15.2410 ha         1 XG7       0.115000
     27 H7           5.6040     8.9730   -16.9870 ha         1 XG7       0.113000
     28 H10          8.9130     7.1680   -14.9650 ha         1 XG7       0.113000
     29 H11         12.6680     9.4600    -8.3150 ha         1 XG7       0.129000
     30 H4          10.5470     8.2150   -14.0720 hn         1 XG7       0.325500
     31 H9           7.8550     6.1530   -16.8480 hn         1 XG7       0.450500
     32 H8           6.5410     6.8300   -17.6250 hn         1 XG7       0.450500
     33 H3          13.7610     9.8260   -13.4380 hc         1 XG7       0.059700
     34 H1          12.1370    10.4960   -13.5830 hc         1 XG7       0.059700
     35 H2          13.2240    11.0720   -12.3130 hc         1 XG7       0.059700
     36 H13         12.7910     6.5500    -5.1760 ha         1 XG7       0.114000
     37 H14         12.4870     4.7460    -6.8430 ha         1 XG7       0.115000
     38 H15         12.3240     5.2880    -9.2410 ha         1 XG7       0.129000
     39 H17         14.8670     9.6700   -11.1380 h1         1 XG7       0.054367
     40 H18         14.7910     8.6200    -9.7340 h1         1 XG7       0.054367
     41 H16         14.8650     7.9070   -11.3610 h1         1 XG7       0.054367
     42 C1          12.9030    10.1940   -12.8730 c3         1 XG7      -0.050900
@<TRIPOS>BOND
     1     1     3 1   
     2     1    12 1   
     3     1    17 2   
     4     2    11 ar  
     5     2    19 ar  
     6     2    24 1   
     7     3     4 ar  
     8     3     9 ar  
     9     4     6 ar  
    10     4    25 1   
    11     5    14 1   
    12     5    15 1   
    13     5    18 2   
    14     6     7 ar  
    15     6    26 1   
    16     7     8 ar  
    17     7    27 1   
    18     8     9 ar  
    19     8    13 1   
    20     9    28 1   
    21    10    11 ar  
    22    10    15 1   
    23    10    21 ar  
    24    11    29 1   
    25    12    14 1   
    26    12    30 1   
    27    13    31 1   
    28    13    32 1   
    29    14    16 2   
    30    15    22 1   
    31    16    22 1   
    32    16    42 1   
    33    19    20 ar  
    34    19    36 1   
    35    20    21 ar  
    36    20    37 1   
    37    21    38 1   
    38    22    23 1   
    39    23    39 1   
    40    23    40 1   
    41    23    41 1   
    42    33    42 1   
    43    34    42 1   
    44    35    42 1   
@<TRIPOS>SUBSTRUCTURE
     1 XG7         1 TEMP              0 ****  ****    0 ROOT
