@<TRIPOS>MOLECULE
XG8
   35    36     1     0     0
SMALL
abcg2


@<TRIPOS>ATOM
      1 N1          72.7800    -0.8030     1.2120 ns         1 XG8      -0.585300
      2 C5          71.1760     1.0870     0.1180 ca         1 XG8      -0.290500
      3 C6          70.6090     1.0960    -1.1460 ca         1 XG8       0.005000
      4 C7          69.2820     1.5080    -1.3120 ca         1 XG8      -0.012000
      5 C8          68.5630     1.8900    -0.1710 ca         1 XG8      -0.045000
      6 C1          72.0630    -1.9290     0.8940 c          1 XG8       0.625100
      7 C2          72.0060    -2.9530     2.0290 c3         1 XG8       0.082500
      8 C3          70.6520    -2.7490     2.7240 c3         1 XG8       0.072600
      9 C9          69.1430     1.8600     1.0910 ca         1 XG8      -0.127000
     10 N2          73.1080    -2.7600     2.9620 n8         1 XG8      -1.027200
     11 O1          71.4760    -2.0820    -0.1600 o          1 XG8      -0.548100
     12 C10         70.4630     1.4620     1.2520 ca         1 XG8      -0.024000
     13 C11         68.6580     1.5350    -2.6340 cc         1 XG8      -0.167000
     14 C13         68.2110     1.5750    -5.0850 cc         1 XG8      -0.234000
     15 C14         67.0650     1.5870    -4.3410 cd         1 XG8      -0.133000
     16 C15         67.3190     1.5650    -2.9450 cd         1 XG8      -0.120000
     17 O4A         73.3970     0.2760    -1.0000 o          1 XG8      -0.534000
     18 O4B         73.5570     1.5190     1.1480 o          1 XG8      -0.534000
     19 S12         69.6100     1.5380    -4.0900 ss         1 XG8       0.217000
     20 S3          70.2690    -4.0090     3.9900 sh         1 XG8      -0.435800
     21 S4          72.8610     0.5870     0.2970 sy         1 XG8       1.211300
     22 H1          73.1910    -0.7770     2.1430 hn         1 XG8       0.372500
     23 H2          71.1980     0.7680    -1.9910 ha         1 XG8       0.149000
     24 H3          67.5400     2.2270    -0.2720 ha         1 XG8       0.120000
     25 H4          72.0020    -3.9350     1.5450 h1         1 XG8       0.075700
     26 H5          70.6020    -1.7630     3.1830 h1         1 XG8       0.087200
     27 H6          69.8550    -2.8270     1.9870 h1         1 XG8       0.087200
     28 H7          68.5640     2.1600     1.9550 ha         1 XG8       0.120000
     29 H8          72.9270    -3.2670     3.8210 hn         1 XG8       0.418500
     30 H9          73.9680    -3.1360     2.5780 hn         1 XG8       0.418500
     31 H11         70.9240     1.4410     2.2300 ha         1 XG8       0.124000
     32 H12         68.3140     1.5880    -6.1590 h4         1 XG8       0.153000
     33 H13         66.0740     1.6050    -4.7720 ha         1 XG8       0.136000
     34 H14         66.5390     1.5550    -2.1980 ha         1 XG8       0.132000
     35 H15         70.9240    -3.4460     5.0180 hs         1 XG8       0.210800
@<TRIPOS>BOND
     1     1     6 1   
     2     1    21 1   
     3     1    22 1   
     4     2     3 ar  
     5     2    12 ar  
     6     2    21 1   
     7     3     4 ar  
     8     3    23 1   
     9     4     5 ar  
    10     4    13 1   
    11     5     9 ar  
    12     5    24 1   
    13     6     7 1   
    14     6    11 2   
    15     7     8 1   
    16     7    10 1   
    17     7    25 1   
    18     8    20 1   
    19     8    26 1   
    20     8    27 1   
    21     9    12 ar  
    22     9    28 1   
    23    10    29 1   
    24    10    30 1   
    25    12    31 1   
    26    13    16 2   
    27    13    19 1   
    28    14    15 2   
    29    14    19 1   
    30    14    32 1   
    31    15    16 1   
    32    15    33 1   
    33    16    34 1   
    34    17    21 2   
    35    18    21 2   
    36    20    35 1   
@<TRIPOS>SUBSTRUCTURE
     1 XG8         1 TEMP              0 ****  ****    0 ROOT
