@<TRIPOS>MOLECULE
XG8
   35    36     1     0     0
SMALL
No Charge or Current Charge


@<TRIPOS>ATOM
      1 N1          72.7050    -0.6830     1.3130 ns         1 XG8      -0.585300
      2 C5          71.3130     1.4380     0.2540 ca         1 XG8      -0.290500
      3 C6          70.6830     1.1980    -0.9870 ca         1 XG8       0.005000
      4 C7          69.3850     1.6880    -1.2430 ca         1 XG8      -0.012000
      5 C8          68.7260     2.4310    -0.2400 ca         1 XG8      -0.045000
      6 C1          72.0730    -1.7760     0.8170 c          1 XG8       0.625100
      7 C2          71.9520    -2.9570     1.8390 c3         1 XG8       0.082500
      8 C3          70.4680    -3.1310     2.2540 c3         1 XG8       0.072600
      9 C9          69.3490     2.6690     0.9970 ca         1 XG8      -0.127000
     10 N2          72.8530    -2.8720     3.0560 n8         1 XG8      -1.027200
     11 O1          71.6440    -1.8400    -0.3250 o          1 XG8      -0.548100
     12 C10         70.6380     2.1730     1.2490 ca         1 XG8      -0.024000
     13 C11         68.7480     1.4320    -2.5390 cc         1 XG8      -0.167000
     14 C13         68.0420     0.9540    -4.8920 cc         1 XG8      -0.234000
     15 C14         66.9910     1.0330    -4.0090 cd         1 XG8      -0.133000
     16 C15         67.3870     1.3000    -2.6700 cd         1 XG8      -0.120000
     17 O4A         73.6130     0.4950    -0.7120 o          1 XG8      -0.534000
     18 O4B         73.6180     1.6170     1.5900 o          1 XG8      -0.534000
     19 S12         69.5830     1.2020    -4.0730 ss         1 XG8       0.217000
     20 S3          70.1490    -4.5550     3.4090 sh         1 XG8      -0.435800
     21 S4          72.9650     0.7870     0.5720 sy         1 XG8       1.211300
     22 H1          73.0110    -0.6970     2.2720 hn         1 XG8       0.372500
     23 H2          71.1960     0.6170    -1.7520 ha         1 XG8       0.149000
     24 H3          67.7340     2.8370    -0.4170 ha         1 XG8       0.120000
     25 H4          72.2410    -3.8590     1.2810 h1         1 XG8       0.075700
     26 H5          70.1170    -2.2100     2.7370 h1         1 XG8       0.087200
     27 H6          69.8610    -3.2830     1.3510 h1         1 XG8       0.087200
     28 H7          68.8310     3.2430     1.7620 ha         1 XG8       0.120000
     29 H8          72.7050    -3.7070     3.6360 hn         1 XG8       0.418500
     30 H9          73.8360    -2.9730     2.7650 hn         1 XG8       0.418500
     31 H11         71.1050     2.3640     2.2140 ha         1 XG8       0.124000
     32 H12         68.0280     0.7630    -5.9570 h4         1 XG8       0.153000
     33 H13         65.9540     0.8990    -4.3060 ha         1 XG8       0.136000
     34 H14         66.6810     1.3760    -1.8490 ha         1 XG8       0.132000
     35 H15         70.7040    -3.9800     4.5050 hs         1 XG8       0.210800
@<TRIPOS>BOND
     1     1     6 1   
     2     1    21 1   
     3     1    22 1   
     4     2     3 ar  
     5     2    12 ar  
     6     2    21 1   
     7     3     4 ar  
     8     3    23 1   
     9     4     5 ar  
    10     4    13 1   
    11     5     9 ar  
    12     5    24 1   
    13     6     7 1   
    14     6    11 2   
    15     7     8 1   
    16     7    10 1   
    17     7    25 1   
    18     8    20 1   
    19     8    26 1   
    20     8    27 1   
    21     9    12 ar  
    22     9    28 1   
    23    10    29 1   
    24    10    30 1   
    25    12    31 1   
    26    13    16 2   
    27    13    19 1   
    28    14    15 2   
    29    14    19 1   
    30    14    32 1   
    31    15    16 1   
    32    15    33 1   
    33    16    34 1   
    34    17    21 2   
    35    18    21 2   
    36    20    35 1   
@<TRIPOS>SUBSTRUCTURE
     1 XG8         1 TEMP              0 ****  ****    0 ROOT
