@<TRIPOS>MOLECULE
XGC
   41    42     1     0     0
SMALL
No Charge or Current Charge


@<TRIPOS>ATOM
      1 C1          71.6100    -1.9810     0.0920 c          1 XGC       0.628100
      2 C16         68.5960     0.0100    -4.0370 ca         1 XGC      -0.024000
      3 C15         67.9890    -0.1850    -5.2860 ca         1 XGC      -0.238000
      4 C14         67.1560     0.8210    -5.8190 ca         1 XGC       0.587300
      5 C12         67.5020     2.1570    -3.9610 ca         1 XGC       0.390900
      6 C5          70.8520     1.2400    -0.4180 ca         1 XGC      -0.303500
      7 C7          68.9750     1.4820    -1.9980 cp         1 XGC      -0.035000
      8 C8          68.2830     2.2240    -1.0080 ca         1 XGC      -0.049000
      9 C10         70.1380     1.9750     0.5510 ca         1 XGC      -0.021000
     10 C9          68.8580     2.4660     0.2510 ca         1 XGC      -0.128000
     11 C2          71.4530    -3.1920     1.0730 c3         1 XGC       0.084500
     12 C11         68.3570     1.2150    -3.3360 cp         1 XGC      -0.141000
     13 C18         66.6950    -0.4910    -7.8560 c3         1 XGC       0.150900
     14 C3          69.9540    -3.3890     1.4160 c3         1 XGC       0.071600
     15 C6          70.2700     0.9980    -1.6810 ca         1 XGC       0.009000
     16 N1          72.2100    -0.8990     0.6470 ns         1 XGC      -0.582300
     17 N13         66.9180     1.9720    -5.1660 nb         1 XGC      -0.694000
     18 N2          72.2980    -3.1360     2.3310 n8         1 XGC      -1.028200
     19 O1          71.2330    -2.0150    -1.0700 o          1 XGC      -0.556100
     20 S3          69.5960    -4.8450     2.5180 sh         1 XGC      -0.439800
     21 S4          72.4920     0.5940    -0.0390 sy         1 XGC       1.214300
     22 H1          69.2280    -0.7680    -3.6140 ha         1 XGC       0.129000
     23 H2          68.1710    -1.1110    -5.8200 ha         1 XGC       0.130000
     24 H3          67.2870     3.1090    -3.4780 h4         1 XGC       0.023100
     25 H4          67.2840     2.6020    -1.2090 ha         1 XGC       0.120000
     26 H5          70.5680     2.1670     1.5330 ha         1 XGC       0.129000
     27 H6          68.3070     3.0320     0.9980 ha         1 XGC       0.121000
     28 H7          71.7750    -4.0760     0.5030 h1         1 XGC       0.075700
     29 H8          66.1170    -0.3920    -8.7830 h1         1 XGC       0.046700
     30 H9          67.7480    -0.6390    -8.1290 h1         1 XGC       0.046700
     31 H10         66.3380    -1.3860    -7.3300 h1         1 XGC       0.046700
     32 H11         69.5730    -2.4830     1.9070 h1         1 XGC       0.086700
     33 H12         69.3890    -3.5210     0.4840 h1         1 XGC       0.086700
     34 H13         70.8250     0.4360    -2.4290 ha         1 XGC       0.148000
     35 H14         72.4720    -0.9380     1.6180 hn         1 XGC       0.373500
     36 H15         72.1300    -3.9880     2.8820 hn         1 XGC       0.421000
     37 H16         73.2940    -3.2240     2.0830 hn         1 XGC       0.421000
     38 H18         70.0890    -4.2930     3.6540 hs         1 XGC       0.213800
     39 O17         66.5350     0.6840    -7.0400 os         1 XGC      -0.449300
     40 O4A         73.2030     0.3420    -1.2980 o          1 XGC      -0.533500
     41 O4B         73.0890     1.4000     1.0320 o          1 XGC      -0.533500
@<TRIPOS>BOND
     1     1    11 1   
     2     1    16 1   
     3     1    19 2   
     4     2     3 ar  
     5     2    12 ar  
     6     2    22 1   
     7     3     4 ar  
     8     3    23 1   
     9     4    17 ar  
    10     4    39 1   
    11     5    12 ar  
    12     5    17 ar  
    13     5    24 1   
    14     6     9 ar  
    15     6    15 ar  
    16     6    21 1   
    17     7     8 ar  
    18     7    12 1   
    19     7    15 ar  
    20     8    10 ar  
    21     8    25 1   
    22     9    10 ar  
    23     9    26 1   
    24    10    27 1   
    25    11    14 1   
    26    11    18 1   
    27    11    28 1   
    28    13    29 1   
    29    13    30 1   
    30    13    31 1   
    31    13    39 1   
    32    14    20 1   
    33    14    32 1   
    34    14    33 1   
    35    15    34 1   
    36    16    21 1   
    37    16    35 1   
    38    18    36 1   
    39    18    37 1   
    40    20    38 1   
    41    21    40 2   
    42    21    41 2   
@<TRIPOS>SUBSTRUCTURE
     1 XGC         1 TEMP              0 ****  ****    0 ROOT
