@<TRIPOS>MOLECULE
XGC
   41    42     1     0     0
SMALL
abcg2


@<TRIPOS>ATOM
      1 C1          71.6880    -2.1140     0.1670 c          1 XGC       0.628100
      2 C16         68.5620     0.0110    -4.1970 ca         1 XGC      -0.024000
      3 C15         67.9780    -0.0920    -5.4460 ca         1 XGC      -0.238000
      4 C14         67.1370     0.9440    -5.8650 ca         1 XGC       0.587300
      5 C12         67.4520     2.0900    -3.9110 ca         1 XGC       0.390900
      6 C5          70.7970     0.9850    -0.5710 ca         1 XGC      -0.303500
      7 C7          68.9210     1.2720    -2.0520 cp         1 XGC      -0.035000
      8 C8          68.2230     1.8550    -0.9880 ca         1 XGC      -0.049000
      9 C10         70.1050     1.5630     0.4900 ca         1 XGC      -0.021000
     10 C9          68.8080     2.0010     0.2650 ca         1 XGC      -0.128000
     11 C2          71.5770    -3.1690     1.2730 c3         1 XGC       0.084500
     12 C11         68.3070     1.1200    -3.3850 cp         1 XGC      -0.141000
     13 C18         66.7250    -0.1170    -7.9680 c3         1 XGC       0.150900
     14 C3          70.0980    -3.2240     1.6810 c3         1 XGC       0.071600
     15 C6          70.2280     0.8330    -1.8260 ca         1 XGC       0.009000
     16 N1          72.3120    -0.9620     0.5770 ns         1 XGC      -0.582300
     17 N13         66.8840     2.0120    -5.1130 nb         1 XGC      -0.694000
     18 N2          72.4230    -2.8390     2.4120 n8         1 XGC      -1.028200
     19 O1          71.2400    -2.2880    -0.9500 o          1 XGC      -0.556100
     20 S3          69.7170    -4.5750     2.8560 sh         1 XGC      -0.439800
     21 S4          72.4560     0.4420    -0.3100 sy         1 XGC       1.214300
     22 H1          69.2040    -0.7860    -3.8440 ha         1 XGC       0.129000
     23 H2          68.1660    -0.9560    -6.0650 ha         1 XGC       0.130000
     24 H3          67.2310     2.9860    -3.3410 h4         1 XGC       0.023100
     25 H4          67.2020     2.1820    -1.1360 ha         1 XGC       0.120000
     26 H5          70.5710     1.6740     1.4590 ha         1 XGC       0.129000
     27 H6          68.2490     2.4570     1.0710 ha         1 XGC       0.121000
     28 H7          71.8430    -4.1190     0.7970 h1         1 XGC       0.075700
     29 H8          66.1350     0.1170    -8.8490 h1         1 XGC       0.046700
     30 H9          67.7800    -0.1890    -8.2370 h1         1 XGC       0.046700
     31 H10         66.3870    -1.0620    -7.5380 h1         1 XGC       0.046700
     32 H11         69.7940    -2.2800     2.1310 h1         1 XGC       0.086700
     33 H12         69.4870    -3.3960     0.7980 h1         1 XGC       0.086700
     34 H13         70.8090     0.3960    -2.6250 ha         1 XGC       0.148000
     35 H14         72.5490    -0.9230     1.5680 hn         1 XGC       0.373500
     36 H15         72.0740    -3.2980     3.2470 hn         1 XGC       0.421000
     37 H16         73.3680    -3.1800     2.2670 hn         1 XGC       0.421000
     38 H18         69.6980    -3.8380     3.9770 hs         1 XGC       0.213800
     39 O17         66.5040     0.9660    -7.0570 os         1 XGC      -0.449300
     40 O4A         73.0500     0.1260    -1.5790 o          1 XGC      -0.533500
     41 O4B         73.1210     1.3520     0.5870 o          1 XGC      -0.533500
@<TRIPOS>BOND
     1     1    11 1   
     2     1    16 1   
     3     1    19 2   
     4     2     3 ar  
     5     2    12 ar  
     6     2    22 1   
     7     3     4 ar  
     8     3    23 1   
     9     4    17 ar  
    10     4    39 1   
    11     5    12 ar  
    12     5    17 ar  
    13     5    24 1   
    14     6     9 ar  
    15     6    15 ar  
    16     6    21 1   
    17     7     8 ar  
    18     7    12 1   
    19     7    15 ar  
    20     8    10 ar  
    21     8    25 1   
    22     9    10 ar  
    23     9    26 1   
    24    10    27 1   
    25    11    14 1   
    26    11    18 1   
    27    11    28 1   
    28    13    29 1   
    29    13    30 1   
    30    13    31 1   
    31    13    39 1   
    32    14    20 1   
    33    14    32 1   
    34    14    33 1   
    35    15    34 1   
    36    16    21 1   
    37    16    35 1   
    38    18    36 1   
    39    18    37 1   
    40    20    38 1   
    41    21    40 2   
    42    21    41 2   
@<TRIPOS>SUBSTRUCTURE
     1 XGC         1 TEMP              0 ****  ****    0 ROOT
