@<TRIPOS>MOLECULE
XGD
   77    81     1     0     0
SMALL
abcg2


@<TRIPOS>ATOM
      1 N1         124.2130   126.4350   158.7670 ns         1 XGD      -0.505900
      2 N3         122.4700   127.0620   155.4780 nc         1 XGD      -0.480300
      3 C4         123.7920   125.4220   159.7040 c3         1 XGD       0.104000
      4 C5         124.2140   127.7490   159.0330 c          1 XGD       0.624700
      5 C6         124.5720   128.6160   157.8610 ca         1 XGD      -0.133600
      6 C7         125.6640   129.4690   157.9780 ca         1 XGD      -0.064000
      7 C8         126.0770   130.2430   156.9040 ca         1 XGD      -0.106000
      8 C10        124.2640   129.3800   155.5840 ca         1 XGD      -0.097000
      9 C13        120.8610   126.9530   156.9790 cd         1 XGD       0.189900
     10 C15        123.7010   122.5070   163.2570 ca         1 XGD      -0.092000
     11 C17        120.8480   121.5130   159.9500 ca         1 XGD      -0.332500
     12 C20        118.6460   123.9520   161.7960 cp         1 XGD      -0.040000
     13 C21        117.4740   124.6380   161.4770 ca         1 XGD      -0.086000
     14 C22        116.7200   125.2430   162.4700 ca         1 XGD      -0.117000
     15 C24        118.2830   124.4820   164.1300 ca         1 XGD      -0.141600
     16 C26        116.7550   123.4020   166.3560 c3         1 XGD       0.087300
     17 C28        119.0460   123.8940   163.1290 ca         1 XGD      -0.054000
     18 C          123.5820   121.3270   161.1770 ca         1 XGD       0.236000
     19 O          123.9860   128.2290   160.1310 o          1 XGD      -0.574100
     20 C1         124.1290   122.4290   160.5330 ca         1 XGD      -0.140000
     21 C11        123.8640   128.6030   156.6610 ca         1 XGD       0.036800
     22 C12        121.3030   126.4990   155.7320 cd         1 XGD       0.189900
     23 C14        124.2290   123.6160   162.6080 ca         1 XGD      -0.098000
     24 C16        123.3790   121.3570   162.5530 ca         1 XGD      -0.103000
     25 C18        120.0330   122.0700   160.9210 ca         1 XGD       0.039000
     26 C19        119.4720   123.3310   160.7430 cp         1 XGD      -0.088000
     27 C2         124.4580   123.5830   161.2370 ca         1 XGD      -0.067300
     28 C23        117.1160   125.1630   163.7970 ca         1 XGD      -0.079000
     29 C25        118.8180   124.4960   165.5290 c          1 XGD       0.614700
     30 C27        118.4050   124.3380   167.8990 c3         1 XGD       0.087300
     31 C29        119.7410   124.0000   159.5510 ca         1 XGD      -0.008000
     32 C3         124.9500   124.7820   160.4770 c3         1 XGD      -0.054100
     33 C30        120.5660   123.4600   158.5800 ca         1 XGD      -0.221000
     34 C31        121.1520   122.2120   158.7730 ca         1 XGD       0.228100
     35 C32        122.4180   122.3640   156.7730 c3         1 XGD       0.153900
     36 C9         125.3820   130.1890   155.7040 ca         1 XGD      -0.089000
     37 N2         122.6990   127.8130   156.5330 na         1 XGD       0.327800
     38 N4         121.7660   127.7850   157.4580 nc         1 XGD      -0.480300
     39 N5         117.9760   124.1650   166.5260 n          1 XGD      -0.406800
     40 O1         121.4030   119.0570   159.0900 o          1 XGD      -0.529500
     41 O2         121.0630   119.4610   161.5350 o          1 XGD      -0.529500
     42 O3         119.9760   124.8440   165.7250 o          1 XGD      -0.593100
     43 O4         122.0100   121.6430   157.9260 os         1 XGD      -0.352100
     44 S          121.5590   119.9150   160.2480 sy         1 XGD       1.147600
     45 H1         124.5100   126.1230   157.8550 hn         1 XGD       0.314500
     46 H2         123.0710   125.8560   160.3970 h1         1 XGD       0.058200
     47 H3         123.2620   124.6560   159.1360 h1         1 XGD       0.058200
     48 H4         126.2150   129.5020   158.9090 ha         1 XGD       0.136000
     49 H5         126.9410   130.8860   157.0040 ha         1 XGD       0.125000
     50 H6         123.6940   129.3610   154.6640 ha         1 XGD       0.139000
     51 H7         119.9560   126.7250   157.5200 h4         1 XGD       0.054100
     52 H8         123.5400   122.5370   164.3270 ha         1 XGD       0.126000
     53 H9         117.1430   124.6920   160.4470 ha         1 XGD       0.114000
     54 H10        115.8160   125.7770   162.2090 ha         1 XGD       0.117000
     55 H11        116.7950   122.5100   166.9840 h1         1 XGD       0.042367
     56 H12        115.8790   123.9830   166.6480 h1         1 XGD       0.042367
     57 H13        116.6300   123.0750   165.3290 h1         1 XGD       0.042367
     58 H14        119.9750   123.4000   163.3890 ha         1 XGD       0.132000
     59 H15        123.6630   120.1320   159.5110 hn         1 XGD       0.489000
     60 H16        124.2850   122.3960   159.4600 ha         1 XGD       0.108000
     61 H17        120.8410   125.8140   155.0410 h4         1 XGD       0.054100
     62 H18        124.4650   124.5100   163.1720 ha         1 XGD       0.125000
     63 H19        122.9810   120.4950   163.0690 ha         1 XGD       0.146000
     64 H20        119.8260   121.5150   161.8260 ha         1 XGD       0.149000
     65 H21        116.5240   125.6450   164.5650 ha         1 XGD       0.121000
     66 H22        117.5290   124.5210   168.5210 h1         1 XGD       0.042367
     67 H23        118.9140   123.4490   168.2800 h1         1 XGD       0.042367
     68 H24        119.0740   125.1880   167.9920 h1         1 XGD       0.042367
     69 H25        119.3240   124.9850   159.3810 ha         1 XGD       0.117000
     70 H26        125.7270   124.4830   159.7690 hc         1 XGD       0.057700
     71 H27        125.3930   125.5160   161.1520 hc         1 XGD       0.057700
     72 H28        120.7600   124.0320   157.6840 ha         1 XGD       0.120000
     73 H29        123.1440   121.7360   156.2660 h1         1 XGD       0.049700
     74 H30        121.5790   122.5540   156.1000 h1         1 XGD       0.049700
     75 H31        122.8890   123.3120   157.0400 h1         1 XGD       0.049700
     76 H32        125.6970   130.7920   154.8630 ha         1 XGD       0.125000
     77 N          123.1990   120.1920   160.4130 nu         1 XGD      -0.848100
@<TRIPOS>BOND
     1     1     3 1   
     2     1     4 1   
     3     1    45 1   
     4     2    22 2   
     5     2    37 1   
     6     3    32 1   
     7     3    46 1   
     8     3    47 1   
     9     4     5 1   
    10     4    19 2   
    11     5     6 ar  
    12     5    21 ar  
    13     6     7 ar  
    14     6    48 1   
    15     7    36 ar  
    16     7    49 1   
    17     8    21 ar  
    18     8    36 ar  
    19     8    50 1   
    20     9    22 1   
    21     9    38 2   
    22     9    51 1   
    23    10    23 ar  
    24    10    24 ar  
    25    10    52 1   
    26    11    25 ar  
    27    11    34 ar  
    28    11    44 1   
    29    12    13 ar  
    30    12    17 ar  
    31    12    26 1   
    32    13    14 ar  
    33    13    53 1   
    34    14    28 ar  
    35    14    54 1   
    36    15    17 ar  
    37    15    28 ar  
    38    15    29 1   
    39    16    39 1   
    40    16    55 1   
    41    16    56 1   
    42    16    57 1   
    43    17    58 1   
    44    18    20 ar  
    45    18    24 ar  
    46    18    77 1   
    47    20    27 ar  
    48    20    60 1   
    49    21    37 1   
    50    22    61 1   
    51    23    27 ar  
    52    23    62 1   
    53    24    63 1   
    54    25    26 ar  
    55    25    64 1   
    56    26    31 ar  
    57    27    32 1   
    58    28    65 1   
    59    29    39 1   
    60    29    42 2   
    61    30    39 1   
    62    30    66 1   
    63    30    67 1   
    64    30    68 1   
    65    31    33 ar  
    66    31    69 1   
    67    32    70 1   
    68    32    71 1   
    69    33    34 ar  
    70    33    72 1   
    71    34    43 1   
    72    35    43 1   
    73    35    73 1   
    74    35    74 1   
    75    35    75 1   
    76    36    76 1   
    77    37    38 1   
    78    40    44 2   
    79    41    44 2   
    80    44    77 1   
    81    59    77 1   
@<TRIPOS>SUBSTRUCTURE
     1 XGD         1 TEMP              0 ****  ****    0 ROOT
