@<TRIPOS>MOLECULE
XGD
   77    81     1     0     0
SMALL
No Charge or Current Charge


@<TRIPOS>ATOM
      1 N1         123.1470   126.3710   159.5580 ns         1 XGD      -0.505900
      2 N3         123.1770   126.6990   156.5220 nc         1 XGD      -0.480300
      3 C4         122.9040   125.1450   160.3160 c3         1 XGD       0.104000
      4 C5         123.1940   127.6400   160.0900 c          1 XGD       0.624700
      5 C6         123.4110   128.8000   159.1320 ca         1 XGD      -0.133600
      6 C7         123.9690   129.9870   159.6670 ca         1 XGD      -0.064000
      7 C8         124.2180   131.1050   158.8550 ca         1 XGD      -0.106000
      8 C10        123.3320   129.9090   156.9420 ca         1 XGD      -0.097000
      9 C13        120.9390   126.4600   156.4560 cd         1 XGD       0.189900
     10 C15        123.4500   121.8540   163.5860 ca         1 XGD      -0.092000
     11 C17        120.9740   120.9490   159.4230 ca         1 XGD      -0.332500
     12 C20        119.3580   124.0290   161.0420 cp         1 XGD      -0.040000
     13 C21        118.2790   124.8930   160.7370 ca         1 XGD      -0.086000
     14 C22        117.7780   125.7860   161.6960 ca         1 XGD      -0.117000
     15 C24        119.4020   124.9660   163.3300 ca         1 XGD      -0.141600
     16 C26        117.8420   124.9940   165.9070 c3         1 XGD       0.087300
     17 C28        119.9110   124.0900   162.3460 ca         1 XGD      -0.054000
     18 C          123.4450   120.8730   161.3570 ca         1 XGD       0.236000
     19 O          123.0610   127.8190   161.2920 o          1 XGD      -0.574100
     20 C1         123.7780   122.1240   160.8130 ca         1 XGD      -0.140000
     21 C11        123.0750   128.7750   157.7430 ca         1 XGD       0.036800
     22 C12        122.1980   125.9270   156.0990 cd         1 XGD       0.189900
     23 C14        123.7590   123.1090   163.0350 ca         1 XGD      -0.098000
     24 C16        123.2820   120.7400   162.7450 ca         1 XGD      -0.103000
     25 C18        120.3840   121.8120   160.3710 ca         1 XGD       0.039000
     26 C19        119.9160   123.0980   160.0130 cp         1 XGD      -0.088000
     27 C2         123.9160   123.2510   161.6440 ca         1 XGD      -0.067300
     28 C23        118.3380   125.8290   162.9830 ca         1 XGD      -0.079000
     29 C25        120.0530   125.0000   164.6990 c          1 XGD       0.614700
     30 C27        119.9440   125.6260   167.1180 c3         1 XGD       0.087300
     31 C29        120.0280   123.4880   158.6610 ca         1 XGD      -0.008000
     32 C3         124.1680   124.6170   161.0230 c3         1 XGD      -0.054100
     33 C30        120.6210   122.6420   157.7110 ca         1 XGD      -0.221000
     34 C31        121.1160   121.3730   158.0860 ca         1 XGD       0.228100
     35 C32        121.9600   120.9370   155.8010 c3         1 XGD       0.153900
     36 C9         123.9050   131.0650   157.4910 ca         1 XGD      -0.089000
     37 N2         122.4420   127.6910   157.1280 na         1 XGD       0.327800
     38 N4         121.0720   127.5900   157.1200 nc         1 XGD      -0.480300
     39 N5         119.2740   125.3630   165.8250 n          1 XGD      -0.406800
     40 O1         121.8700   118.4340   158.9410 o          1 XGD      -0.529500
     41 O2         120.9740   119.0080   161.2730 o          1 XGD      -0.529500
     42 O3         121.2540   124.7920   164.8170 o          1 XGD      -0.593100
     43 O4         121.7610   120.5620   157.1770 os         1 XGD      -0.352100
     44 S          121.6400   119.3910   160.0250 sy         1 XGD       1.147600
     45 H1         123.3020   126.2940   158.5590 hn         1 XGD       0.314500
     46 H2         122.1140   125.3260   161.0570 h1         1 XGD       0.058200
     47 H3         122.5370   124.3830   159.6160 h1         1 XGD       0.058200
     48 H4         124.2270   130.0420   160.7230 ha         1 XGD       0.136000
     49 H5         124.6550   132.0030   159.2870 ha         1 XGD       0.125000
     50 H6         123.0740   129.8930   155.8850 ha         1 XGD       0.139000
     51 H7         119.9540   126.0600   156.2530 h4         1 XGD       0.054100
     52 H8         123.3180   121.7500   164.6610 ha         1 XGD       0.126000
     53 H9         117.8260   124.8710   159.7490 ha         1 XGD       0.114000
     54 H10        116.9580   126.4520   161.4400 ha         1 XGD       0.117000
     55 H11        117.6220   124.5540   166.8880 h1         1 XGD       0.042367
     56 H12        117.2200   125.8890   165.7760 h1         1 XGD       0.042367
     57 H13        117.5850   124.2560   165.1370 h1         1 XGD       0.042367
     58 H14        120.7550   123.4510   162.5960 ha         1 XGD       0.132000
     59 H15        123.6550   119.8770   159.6130 hn         1 XGD       0.489000
     60 H16        123.8760   122.2340   159.7360 ha         1 XGD       0.108000
     61 H17        122.4170   125.0170   155.5550 h4         1 XGD       0.054100
     62 H18        123.8550   123.9740   163.6890 ha         1 XGD       0.125000
     63 H19        123.0130   119.7750   163.1670 ha         1 XGD       0.146000
     64 H20        120.3010   121.4940   161.4090 ha         1 XGD       0.149000
     65 H21        117.9570   126.5550   163.6960 ha         1 XGD       0.121000
     66 H22        119.2370   126.0810   167.8240 h1         1 XGD       0.042367
     67 H23        120.3190   124.6850   167.5400 h1         1 XGD       0.042367
     68 H24        120.7840   126.3170   166.9700 h1         1 XGD       0.042367
     69 H25        119.6850   124.4720   158.3520 ha         1 XGD       0.117000
     70 H26        124.9840   124.5460   160.2930 hc         1 XGD       0.057700
     71 H27        124.4890   125.3400   161.7820 hc         1 XGD       0.057700
     72 H28        120.7040   123.0010   156.6900 ha         1 XGD       0.120000
     73 H29        122.4940   120.1420   155.2650 h1         1 XGD       0.049700
     74 H30        120.9980   121.0980   155.2970 h1         1 XGD       0.049700
     75 H31        122.5560   121.8550   155.7280 h1         1 XGD       0.049700
     76 H32        124.0960   131.9320   156.8610 ha         1 XGD       0.125000
     77 N          123.1900   119.8070   160.5080 nu         1 XGD      -0.848100
@<TRIPOS>BOND
     1     1     3 1   
     2     1     4 1   
     3     1    45 1   
     4     2    22 2   
     5     2    37 1   
     6     3    32 1   
     7     3    46 1   
     8     3    47 1   
     9     4     5 1   
    10     4    19 2   
    11     5     6 ar  
    12     5    21 ar  
    13     6     7 ar  
    14     6    48 1   
    15     7    36 ar  
    16     7    49 1   
    17     8    21 ar  
    18     8    36 ar  
    19     8    50 1   
    20     9    22 1   
    21     9    38 2   
    22     9    51 1   
    23    10    23 ar  
    24    10    24 ar  
    25    10    52 1   
    26    11    25 ar  
    27    11    34 ar  
    28    11    44 1   
    29    12    13 ar  
    30    12    17 ar  
    31    12    26 1   
    32    13    14 ar  
    33    13    53 1   
    34    14    28 ar  
    35    14    54 1   
    36    15    17 ar  
    37    15    28 ar  
    38    15    29 1   
    39    16    39 1   
    40    16    55 1   
    41    16    56 1   
    42    16    57 1   
    43    17    58 1   
    44    18    20 ar  
    45    18    24 ar  
    46    18    77 1   
    47    20    27 ar  
    48    20    60 1   
    49    21    37 1   
    50    22    61 1   
    51    23    27 ar  
    52    23    62 1   
    53    24    63 1   
    54    25    26 ar  
    55    25    64 1   
    56    26    31 ar  
    57    27    32 1   
    58    28    65 1   
    59    29    39 1   
    60    29    42 2   
    61    30    39 1   
    62    30    66 1   
    63    30    67 1   
    64    30    68 1   
    65    31    33 ar  
    66    31    69 1   
    67    32    70 1   
    68    32    71 1   
    69    33    34 ar  
    70    33    72 1   
    71    34    43 1   
    72    35    43 1   
    73    35    73 1   
    74    35    74 1   
    75    35    75 1   
    76    36    76 1   
    77    37    38 1   
    78    40    44 2   
    79    41    44 2   
    80    44    77 1   
    81    59    77 1   
@<TRIPOS>SUBSTRUCTURE
     1 XGD         1 TEMP              0 ****  ****    0 ROOT
