@<TRIPOS>MOLECULE
XGE
   29    29     1     0     0
SMALL
abcg2


@<TRIPOS>ATOM
      1 C01         34.4740    16.1950    87.9870 c3         1 XGE      -0.051900
      2 C02         34.4240    17.3730    87.0590 c2         1 XGE      -0.119400
      3 C03         34.1870    17.0660    85.6020 c6         1 XGE      -0.041200
      4 C04         34.5060    18.2480    84.6890 c6         1 XGE      -0.066400
      5 C05         33.8820    19.5370    85.2320 c6         1 XGE      -0.082700
      6 C06         34.4870    19.8470    86.6070 c6         1 XGE      -0.031200
      7 C07         34.5760    18.6280    87.4840 c2         1 XGE      -0.224200
      8 C08         33.9370    20.7210    84.2380 c3         1 XGE       0.181000
      9 C09         33.3100    21.9770    84.8460 c3         1 XGE      -0.097600
     10 C10         35.3430    21.0220    83.7320 c3         1 XGE      -0.097600
     11 O11         33.1840    20.3620    83.0530 oh         1 XGE      -0.669000
     12 H1          34.6180    16.5020    89.0230 hc         1 XGE       0.039033
     13 H2          33.5490    15.6130    87.9240 hc         1 XGE       0.039033
     14 H3          35.2880    15.5160    87.7100 hc         1 XGE       0.039033
     15 H4          33.1420    16.7560    85.4690 hc         1 XGE       0.044700
     16 H5          34.7890    16.1980    85.3160 hc         1 XGE       0.044700
     17 H6          34.1490    18.0520    83.6780 hc         1 XGE       0.049200
     18 H7          35.5920    18.3680    84.6330 hc         1 XGE       0.049200
     19 H8          32.8130    19.3400    85.3900 hc         1 XGE       0.041700
     20 H9          35.4860    20.2860    86.4900 hc         1 XGE       0.046200
     21 H10         33.8910    20.6060    87.1200 hc         1 XGE       0.046200
     22 H11         34.7650    18.8070    88.5400 ha         1 XGE       0.169000
     23 H12         33.9150    22.3690    85.6640 hc         1 XGE       0.042700
     24 H13         33.2270    22.7500    84.0810 hc         1 XGE       0.042700
     25 H14         32.3110    21.7600    85.2330 hc         1 XGE       0.042700
     26 H15         36.0080    21.2790    84.5560 hc         1 XGE       0.042700
     27 H16         35.7600    20.1650    83.2030 hc         1 XGE       0.042700
     28 H17         35.3110    21.8680    83.0430 hc         1 XGE       0.042700
     29 H18         32.2810    20.1550    83.3260 ho         1 XGE       0.436000
@<TRIPOS>BOND
     1     1     2 1   
     2     1    12 1   
     3     1    13 1   
     4     1    14 1   
     5     2     3 1   
     6     2     7 2   
     7     3     4 1   
     8     3    15 1   
     9     3    16 1   
    10     4     5 1   
    11     4    17 1   
    12     4    18 1   
    13     5     6 1   
    14     5     8 1   
    15     5    19 1   
    16     6     7 1   
    17     6    20 1   
    18     6    21 1   
    19     7    22 1   
    20     8     9 1   
    21     8    10 1   
    22     8    11 1   
    23     9    23 1   
    24     9    24 1   
    25     9    25 1   
    26    10    26 1   
    27    10    27 1   
    28    10    28 1   
    29    11    29 1   
@<TRIPOS>SUBSTRUCTURE
     1 XGE         1 TEMP              0 ****  ****    0 ROOT
