@<TRIPOS>MOLECULE
XGE
   29    29     1     0     0
SMALL
No Charge or Current Charge


@<TRIPOS>ATOM
      1 C01         34.4710    16.1440    88.0100 c3         1 XGE      -0.051900
      2 C02         34.4360    17.3470    87.0870 c2         1 XGE      -0.119400
      3 C03         34.1730    17.0190    85.6190 c6         1 XGE      -0.041200
      4 C04         34.4700    18.2080    84.6730 c6         1 XGE      -0.066400
      5 C05         33.8780    19.5360    85.2330 c6         1 XGE      -0.082700
      6 C06         34.5380    19.8360    86.6140 c6         1 XGE      -0.031200
      7 C07         34.6010    18.6100    87.5170 c2         1 XGE      -0.224200
      8 C08         33.9360    20.7450    84.2140 c3         1 XGE       0.181000
      9 C09         33.2590    22.0160    84.7860 c3         1 XGE      -0.097600
     10 C10         35.3710    21.0990    83.7450 c3         1 XGE      -0.097600
     11 O11         33.1980    20.4020    83.0380 oh         1 XGE      -0.669000
     12 H1          34.6420    16.4380    89.0530 hc         1 XGE       0.039033
     13 H2          33.5240    15.5930    87.9740 hc         1 XGE       0.039033
     14 H3          35.2730    15.4530    87.7260 hc         1 XGE       0.039033
     15 H4          33.1260    16.7060    85.5040 hc         1 XGE       0.044700
     16 H5          34.7870    16.1620    85.3110 hc         1 XGE       0.044700
     17 H6          34.0670    17.9830    83.6760 hc         1 XGE       0.049200
     18 H7          35.5570    18.3060    84.5550 hc         1 XGE       0.049200
     19 H8          32.8090    19.3590    85.4200 hc         1 XGE       0.041700
     20 H9          35.5580    20.2210    86.4840 hc         1 XGE       0.046200
     21 H10         33.9730    20.6230    87.1330 hc         1 XGE       0.046200
     22 H11         34.7810    18.8130    88.5750 ha         1 XGE       0.169000
     23 H12         33.8380    22.4330    85.6180 hc         1 XGE       0.042700
     24 H13         33.1790    22.7970    84.0190 hc         1 XGE       0.042700
     25 H14         32.2490    21.7960    85.1500 hc         1 XGE       0.042700
     26 H15         35.9990    21.4210    84.5830 hc         1 XGE       0.042700
     27 H16         35.8570    20.2450    83.2600 hc         1 XGE       0.042700
     28 H17         35.3490    21.9200    83.0170 hc         1 XGE       0.042700
     29 H18         32.3020    20.1360    83.3340 ho         1 XGE       0.436000
@<TRIPOS>BOND
     1     1     2 1   
     2     1    12 1   
     3     1    13 1   
     4     1    14 1   
     5     2     3 1   
     6     2     7 2   
     7     3     4 1   
     8     3    15 1   
     9     3    16 1   
    10     4     5 1   
    11     4    17 1   
    12     4    18 1   
    13     5     6 1   
    14     5     8 1   
    15     5    19 1   
    16     6     7 1   
    17     6    20 1   
    18     6    21 1   
    19     7    22 1   
    20     8     9 1   
    21     8    10 1   
    22     8    11 1   
    23     9    23 1   
    24     9    24 1   
    25     9    25 1   
    26    10    26 1   
    27    10    27 1   
    28    10    28 1   
    29    11    29 1   
@<TRIPOS>SUBSTRUCTURE
     1 XGE         1 TEMP              0 ****  ****    0 ROOT
