@<TRIPOS>MOLECULE
XGG
   46    49     1     0     0
SMALL
No Charge or Current Charge


@<TRIPOS>ATOM
      1 C4          17.6110   -45.4290     6.6890 cx         1 XGG      -0.126900
      2 C6          18.5100   -43.6750     8.4160 c3         1 XGG       0.206600
      3 C9          20.0270   -45.1170    11.4820 ca         1 XGG      -0.191000
      4 C20         25.7680   -44.3010    16.6220 ca         1 XGG      -0.109000
      5 C21         26.1670   -44.8190    17.8630 ca         1 XGG      -0.154000
      6 C8          19.8130   -44.2370    10.4140 ca         1 XGG       0.567300
      7 C19         24.4270   -43.9170    16.3950 ca         1 XGG      -0.146500
      8 C1          15.4560   -42.8970     8.7620 c3         1 XGG      -0.087100
      9 C2          16.0260   -44.2980     8.4530 c3         1 XGG      -0.039400
     10 C3          17.3320   -44.2840     7.6410 cx         1 XGG      -0.109000
     11 C5          17.2550   -44.0650     6.1450 cx         1 XGG      -0.126900
     12 O7          18.7990   -44.5330     9.5370 os         1 XGG      -0.477300
     13 C10         21.0520   -44.8540    12.4020 ca         1 XGG      -0.004000
     14 C11         21.8500   -43.7090    12.2120 ca         1 XGG      -0.180500
     15 C12         21.5450   -42.8700    11.1210 ca         1 XGG       0.371900
     16 N13         20.5550   -43.1250    10.2350 nb         1 XGG      -0.772000
     17 C14         22.9100   -43.3680    13.1640 cc         1 XGG       0.362500
     18 C15         23.9120   -42.4960    12.8110 cd         1 XGG      -0.286000
     19 S16         25.0430   -42.3160    14.1390 ss         1 XGG      -0.093400
     20 C17         24.0370   -43.4490    15.0490 cd         1 XGG       0.575900
     21 N18         22.9800   -43.9310    14.4080 nc         1 XGG      -0.610000
     22 C22         25.2300   -44.9680    18.8950 ca         1 XGG      -0.115000
     23 C23         23.8940   -44.5910    18.6860 ca         1 XGG      -0.107000
     24 C24         23.4770   -44.0610    17.4450 ca         1 XGG      -0.053600
     25 C25         22.0370   -43.6070    17.2960 c          1 XGG       0.713600
     26 O26         21.8310   -42.4460    16.9670 o          1 XGG      -0.708500
     27 O27         21.1490   -44.3820    17.6260 o          1 XGG      -0.708500
     28 H34         16.8690   -46.2190     6.6030 hc         1 XGG       0.070200
     29 H33         18.6410   -45.7640     6.5820 hc         1 XGG       0.070200
     30 H37         19.3850   -43.6030     7.7560 h1         1 XGG       0.050200
     31 H38         18.2600   -42.6600     8.7490 h1         1 XGG       0.050200
     32 H39         19.3970   -45.9950    11.5900 ha         1 XGG       0.133000
     33 H28         14.4820   -42.9870     9.2590 hc         1 XGG       0.033033
     34 H30         16.1200   -42.3340     9.4270 hc         1 XGG       0.033033
     35 H29         15.3160   -42.3220     7.8390 hc         1 XGG       0.033033
     36 H31         15.2580   -44.8590     7.9060 hc         1 XGG       0.044700
     37 H32         16.1720   -44.8380     9.3960 hc         1 XGG       0.044700
     38 H35         18.0450   -43.4880     5.6690 hc         1 XGG       0.070200
     39 H36         16.2720   -43.9420     5.6950 hc         1 XGG       0.070200
     40 H40         21.2220   -45.5310    13.2380 ha         1 XGG       0.164000
     41 H41         22.0980   -41.9500    10.9420 h4         1 XGG       0.011100
     42 H42         24.0690   -41.9710    11.8780 h4         1 XGG       0.142000
     43 H45         25.5380   -45.3710    19.8570 ha         1 XGG       0.089000
     44 H46         23.1770   -44.6970    19.4970 ha         1 XGG       0.120000
     45 H43         26.5050   -44.2140    15.8260 ha         1 XGG       0.092000
     46 H44         27.2020   -45.1130    18.0230 ha         1 XGG       0.090000
@<TRIPOS>BOND
     1     1    10 1   
     2     1    11 1   
     3     1    28 1   
     4     1    29 1   
     5     2    10 1   
     6     2    12 1   
     7     2    30 1   
     8     2    31 1   
     9     3     6 ar  
    10     3    13 ar  
    11     3    32 1   
    12     4     5 ar  
    13     4     7 ar  
    14     4    45 1   
    15     5    22 ar  
    16     5    46 1   
    17     6    12 1   
    18     6    16 ar  
    19     7    20 1   
    20     7    24 ar  
    21     8     9 1   
    22     8    33 1   
    23     8    34 1   
    24     8    35 1   
    25     9    10 1   
    26     9    36 1   
    27     9    37 1   
    28    10    11 1   
    29    11    38 1   
    30    11    39 1   
    31    13    14 ar  
    32    13    40 1   
    33    14    15 ar  
    34    14    17 1   
    35    15    16 ar  
    36    15    41 1   
    37    17    18 2   
    38    17    21 1   
    39    18    19 1   
    40    18    42 1   
    41    19    20 1   
    42    20    21 2   
    43    22    23 ar  
    44    22    43 1   
    45    23    24 ar  
    46    23    44 1   
    47    24    25 1   
    48    25    26 1   
    49    25    27 1   
@<TRIPOS>SUBSTRUCTURE
     1 XGG         1 TEMP              0 ****  ****    0 ROOT
