@<TRIPOS>MOLECULE
XGG
   46    49     1     0     0
SMALL
abcg2


@<TRIPOS>ATOM
      1 C4          17.5650   -45.4430     6.7520 cx         1 XGG      -0.126900
      2 C6          18.5630   -43.7820     8.4300 c3         1 XGG       0.206600
      3 C9          19.9730   -45.0780    11.5640 ca         1 XGG      -0.191000
      4 C20         25.7480   -44.2350    16.6220 ca         1 XGG      -0.109000
      5 C21         26.1340   -44.6940    17.8740 ca         1 XGG      -0.154000
      6 C8          19.8000   -44.2790    10.4250 ca         1 XGG       0.567300
      7 C19         24.4050   -43.9630    16.3360 ca         1 XGG      -0.146500
      8 C1          15.5920   -42.8590     8.8760 c3         1 XGG      -0.087100
      9 C2          16.0440   -44.2690     8.4960 c3         1 XGG      -0.039400
     10 C3          17.3490   -44.3110     7.7210 cx         1 XGG      -0.109000
     11 C5          17.2980   -44.0500     6.2390 cx         1 XGG      -0.126900
     12 O7          18.8020   -44.6160     9.5870 os         1 XGG      -0.477300
     13 C10         20.9910   -44.7590    12.4330 ca         1 XGG      -0.004000
     14 C11         21.8230   -43.6580    12.1690 ca         1 XGG      -0.180500
     15 C12         21.5490   -42.9330    11.0140 ca         1 XGG       0.371900
     16 N13         20.5660   -43.2310    10.1570 nb         1 XGG      -0.772000
     17 C14         22.9230   -43.2980    13.0730 cc         1 XGG       0.362500
     18 C15         23.9210   -42.3910    12.8240 cd         1 XGG      -0.286000
     19 S16         24.9890   -42.2940    14.1600 ss         1 XGG      -0.093400
     20 C17         24.0390   -43.4980    14.9920 cd         1 XGG       0.575900
     21 N18         23.0150   -43.9130    14.3030 nc         1 XGG      -0.610000
     22 C22         25.1680   -44.9020    18.8540 ca         1 XGG      -0.115000
     23 C23         23.8310   -44.6450    18.5730 ca         1 XGG      -0.107000
     24 C24         23.4300   -44.1570    17.3290 ca         1 XGG      -0.053600
     25 C25         21.9640   -43.7900    17.1340 c          1 XGG       0.713600
     26 O26         21.7190   -42.5740    16.9500 o          1 XGG      -0.708500
     27 O27         21.1330   -44.7260    17.2210 o          1 XGG      -0.708500
     28 H34         16.7760   -46.1780     6.6600 hc         1 XGG       0.070200
     29 H33         18.5680   -45.8370     6.6460 hc         1 XGG       0.070200
     30 H37         19.4400   -43.8110     7.7810 h1         1 XGG       0.050200
     31 H38         18.4220   -42.7540     8.7640 h1         1 XGG       0.050200
     32 H39         19.3160   -45.9190    11.7380 ha         1 XGG       0.133000
     33 H28         14.6190   -42.8860     9.3700 hc         1 XGG       0.033033
     34 H30         16.2970   -42.3810     9.5590 hc         1 XGG       0.033033
     35 H29         15.5030   -42.2260     7.9900 hc         1 XGG       0.033033
     36 H31         15.2710   -44.7450     7.8860 hc         1 XGG       0.044700
     37 H32         16.1450   -44.8790     9.3980 hc         1 XGG       0.044700
     38 H35         18.1190   -43.5120     5.7830 hc         1 XGG       0.070200
     39 H36         16.3280   -43.8430     5.8080 hc         1 XGG       0.070200
     40 H40         21.1540   -45.3510    13.3230 ha         1 XGG       0.164000
     41 H41         22.1400   -42.0610    10.7590 h4         1 XGG       0.011100
     42 H42         24.0860   -41.7970    11.9410 h4         1 XGG       0.142000
     43 H45         25.4550   -45.2650    19.8330 ha         1 XGG       0.089000
     44 H46         23.0810   -44.8060    19.3380 ha         1 XGG       0.120000
     45 H43         26.4920   -44.1060    15.8450 ha         1 XGG       0.092000
     46 H44         27.1770   -44.9000    18.0770 ha         1 XGG       0.090000
@<TRIPOS>BOND
     1     1    10 1   
     2     1    11 1   
     3     1    28 1   
     4     1    29 1   
     5     2    10 1   
     6     2    12 1   
     7     2    30 1   
     8     2    31 1   
     9     3     6 ar  
    10     3    13 ar  
    11     3    32 1   
    12     4     5 ar  
    13     4     7 ar  
    14     4    45 1   
    15     5    22 ar  
    16     5    46 1   
    17     6    12 1   
    18     6    16 ar  
    19     7    20 1   
    20     7    24 ar  
    21     8     9 1   
    22     8    33 1   
    23     8    34 1   
    24     8    35 1   
    25     9    10 1   
    26     9    36 1   
    27     9    37 1   
    28    10    11 1   
    29    11    38 1   
    30    11    39 1   
    31    13    14 ar  
    32    13    40 1   
    33    14    15 ar  
    34    14    17 1   
    35    15    16 ar  
    36    15    41 1   
    37    17    18 2   
    38    17    21 1   
    39    18    19 1   
    40    18    42 1   
    41    19    20 1   
    42    20    21 2   
    43    22    23 ar  
    44    22    43 1   
    45    23    24 ar  
    46    23    44 1   
    47    24    25 1   
    48    25    26 1   
    49    25    27 1   
@<TRIPOS>SUBSTRUCTURE
     1 XGG         1 TEMP              0 ****  ****    0 ROOT
