@<TRIPOS>MOLECULE
XGH
   62    64     1     0     0
SMALL
No Charge or Current Charge


@<TRIPOS>ATOM
      1 F6          -9.9090   -36.1800    11.7200 f          1 XGH      -0.095000
      2 C22         -8.8030   -36.5060    11.0090 c3         1 XGH       0.294500
      3 F4          -8.6250   -37.8410    11.1550 f          1 XGH      -0.095000
      4 F5          -7.7430   -35.9030    11.5990 f          1 XGH      -0.095000
      5 C20         -8.9690   -36.1030     9.4830 c3         1 XGH       0.115300
      6 O4          -9.9680   -36.9890     8.9180 oh         1 XGH      -0.619000
      7 C21         -7.6140   -36.2940     8.6920 c3         1 XGH       0.294500
      8 F3          -6.6770   -35.4000     9.0880 f          1 XGH      -0.095000
      9 F2          -7.7870   -36.1190     7.3590 f          1 XGH      -0.095000
     10 F1          -7.0940   -37.5330     8.8630 f          1 XGH      -0.095000
     11 C1          -9.4790   -34.6470     9.2590 ca         1 XGH      -0.137300
     12 C2         -10.1090   -34.3080     8.0380 ca         1 XGH      -0.062000
     13 C3         -10.5420   -32.9990     7.7640 ca         1 XGH      -0.110000
     14 S          -11.3660   -32.7250     6.1880 ss         1 XGH      -0.149000
     15 C7         -11.7440   -30.9170     6.1960 c6         1 XGH       0.041300
     16 C8         -12.9840   -30.6640     5.2930 c3         1 XGH      -0.145400
     17 C9         -13.2680   -29.1780     5.0730 c          1 XGH       0.592100
     18 N1         -14.4010   -28.6990     5.6940 ns         1 XGH      -0.500900
     19 C10        -14.8840   -27.3080     5.6190 c3         1 XGH       0.075000
     20 C11        -14.3890   -26.3840     6.7760 c3         1 XGH       0.157000
     21 C13        -12.8720   -26.1030     6.6790 c3         1 XGH      -0.098600
     22 O1         -15.0560   -25.1230     6.6530 oh         1 XGH      -0.657000
     23 C12        -14.7460   -26.9660     8.1650 c3         1 XGH      -0.098600
     24 O          -12.5550   -28.4760     4.3730 o          1 XGH      -0.593100
     25 C6         -11.9120   -30.3660     7.6320 c6         1 XGH       0.197800
     26 N          -10.7000   -30.6380     8.4430 nh         1 XGH      -0.747300
     27 C4         -10.3300   -31.9710     8.7120 ca         1 XGH       0.247000
     28 C5          -9.7430   -32.3080     9.9450 ca         1 XGH      -0.077000
     29 C           -9.3120   -33.6170    10.2150 ca         1 XGH      -0.073000
     30 S1          -9.4540   -29.4580     8.3670 sy         1 XGH       1.190600
     31 O2          -9.9740   -28.2920     7.6460 o          1 XGH      -0.530500
     32 O3          -8.8940   -29.3330     9.7170 o          1 XGH      -0.530500
     33 C14         -8.2620   -30.3070     7.3120 ca         1 XGH      -0.337500
     34 C19         -8.2300   -30.0480     5.9250 ca         1 XGH       0.015000
     35 C18         -7.3190   -30.7350     5.1050 ca         1 XGH      -0.166500
     36 C17         -6.4370   -31.6680     5.6670 ca         1 XGH       0.228000
     37 F           -5.5640   -32.3280     4.8740 f          1 XGH      -0.170000
     38 C16         -6.4470   -31.9140     7.0460 ca         1 XGH      -0.166500
     39 C15         -7.3520   -31.2290     7.8730 ca         1 XGH       0.015000
     40 H1         -10.8360   -36.7270     9.2960 ho         1 XGH       0.479000
     41 H2         -10.2610   -35.0670     7.2740 ha         1 XGH       0.138000
     42 H3         -10.8850   -30.4180     5.7330 h1         1 XGH       0.101700
     43 H4         -13.8610   -31.1490     5.7400 hc         1 XGH       0.075700
     44 H5         -12.7970   -31.1110     4.3090 hc         1 XGH       0.075700
     45 H6         -14.9460   -29.3660     6.2270 hn         1 XGH       0.310500
     46 H7         -15.9820   -27.3390     5.6320 h1         1 XGH       0.064200
     47 H8         -14.5850   -26.8750     4.6550 h1         1 XGH       0.064200
     48 H9         -12.2930   -27.0210     6.8190 hc         1 XGH       0.046867
     49 H10        -12.6140   -25.6840     5.6990 hc         1 XGH       0.046867
     50 H11        -12.5560   -25.3880     7.4480 hc         1 XGH       0.046867
     51 H12        -15.9850   -25.2540     6.9430 ho         1 XGH       0.435000
     52 H13        -14.2060   -27.9030     8.3490 hc         1 XGH       0.046867
     53 H14        -14.4770   -26.2650     8.9640 hc         1 XGH       0.046867
     54 H15        -15.8200   -27.1740     8.2410 hc         1 XGH       0.046867
     55 H16        -12.1600   -29.2960     7.6080 h1         1 XGH       0.089200
     56 H17        -12.7770   -30.8590     8.1000 h1         1 XGH       0.089200
     57 H18         -9.6130   -31.5460    10.7060 ha         1 XGH       0.157000
     58 H19         -8.8410   -33.7970    11.1750 ha         1 XGH       0.145000
     59 H20         -8.9050   -29.3200     5.4760 ha         1 XGH       0.142500
     60 H21         -7.2960   -30.5440     4.0360 ha         1 XGH       0.143000
     61 H22         -5.7530   -32.6330     7.4730 ha         1 XGH       0.143000
     62 H23         -7.3450   -31.4240     8.9440 ha         1 XGH       0.142500
@<TRIPOS>BOND
     1     1     2 1   
     2     2     3 1   
     3     2     4 1   
     4     2     5 1   
     5     5     6 1   
     6     5     7 1   
     7     5    11 1   
     8     6    40 1   
     9     7     8 1   
    10     7     9 1   
    11     7    10 1   
    12    11    12 ar  
    13    11    29 ar  
    14    12    13 ar  
    15    12    41 1   
    16    13    14 1   
    17    13    27 ar  
    18    14    15 1   
    19    15    16 1   
    20    15    25 1   
    21    15    42 1   
    22    16    17 1   
    23    16    43 1   
    24    16    44 1   
    25    17    18 1   
    26    17    24 2   
    27    18    19 1   
    28    18    45 1   
    29    19    20 1   
    30    19    46 1   
    31    19    47 1   
    32    20    21 1   
    33    20    22 1   
    34    20    23 1   
    35    21    48 1   
    36    21    49 1   
    37    21    50 1   
    38    22    51 1   
    39    23    52 1   
    40    23    53 1   
    41    23    54 1   
    42    25    26 1   
    43    25    55 1   
    44    25    56 1   
    45    26    27 1   
    46    26    30 1   
    47    27    28 ar  
    48    28    29 ar  
    49    28    57 1   
    50    29    58 1   
    51    30    31 2   
    52    30    32 2   
    53    30    33 1   
    54    33    34 ar  
    55    33    39 ar  
    56    34    35 ar  
    57    34    59 1   
    58    35    36 ar  
    59    35    60 1   
    60    36    37 1   
    61    36    38 ar  
    62    38    39 ar  
    63    38    61 1   
    64    39    62 1   
@<TRIPOS>SUBSTRUCTURE
     1 XGH         1 TEMP              0 ****  ****    0 ROOT
