@<TRIPOS>MOLECULE
XGH
   62    64     1     0     0
SMALL
abcg2


@<TRIPOS>ATOM
      1 F6         -10.9880   -36.1530    11.2100 f          1 XGH      -0.095000
      2 C22         -9.6860   -36.4680    11.0900 c3         1 XGH       0.294500
      3 F4          -9.5820   -37.7930    11.2580 f          1 XGH      -0.095000
      4 F5          -9.0280   -35.8870    12.1060 f          1 XGH      -0.095000
      5 C20         -9.1810   -36.0290     9.6760 c3         1 XGH       0.115300
      6 O4          -9.7450   -36.9110     8.7440 oh         1 XGH      -0.619000
      7 C21         -7.6500   -36.2680     9.5300 c3         1 XGH       0.294500
      8 F3          -6.9410   -35.5000    10.3710 f          1 XGH      -0.095000
      9 F2          -7.2620   -35.9710     8.2820 f          1 XGH      -0.095000
     10 F1          -7.3120   -37.5450     9.7630 f          1 XGH      -0.095000
     11 C1          -9.4940   -34.5570     9.3920 ca         1 XGH      -0.137300
     12 C2         -10.0160   -34.2240     8.1510 ca         1 XGH      -0.062000
     13 C3         -10.2870   -32.8940     7.8160 ca         1 XGH      -0.110000
     14 S          -10.8980   -32.6080     6.1880 ss         1 XGH      -0.149000
     15 C7         -11.4160   -30.8460     6.2040 c6         1 XGH       0.041300
     16 C8         -12.7460   -30.7230     5.4560 c3         1 XGH      -0.145400
     17 C9         -13.0870   -29.2600     5.2160 c          1 XGH       0.592100
     18 N1         -14.2120   -28.8250     5.8130 ns         1 XGH      -0.500900
     19 C10        -14.7270   -27.4720     5.7080 c3         1 XGH       0.075000
     20 C11        -14.4870   -26.5970     6.9570 c3         1 XGH       0.157000
     21 C13        -13.0120   -26.2720     7.1370 c3         1 XGH      -0.098600
     22 O1         -15.1360   -25.3350     6.7080 oh         1 XGH      -0.657000
     23 C12        -15.0700   -27.2440     8.2090 c3         1 XGH      -0.098600
     24 O          -12.3570   -28.5440     4.5290 o          1 XGH      -0.593100
     25 C6         -11.5190   -30.3120     7.6250 c6         1 XGH       0.197800
     26 N          -10.3160   -30.5280     8.4380 nh         1 XGH      -0.747300
     27 C4         -10.0370   -31.8900     8.7570 ca         1 XGH       0.247000
     28 C5          -9.5380   -32.2320    10.0110 ca         1 XGH      -0.077000
     29 C           -9.2470   -33.5470    10.3260 ca         1 XGH      -0.073000
     30 S1          -9.0080   -29.5080     8.2230 sy         1 XGH       1.190600
     31 O2          -9.5510   -28.2400     7.8060 o          1 XGH      -0.530500
     32 O3          -8.2110   -29.5870     9.4190 o          1 XGH      -0.530500
     33 C14         -8.0660   -30.2010     6.8980 ca         1 XGH      -0.337500
     34 C19         -8.1650   -29.6520     5.6220 ca         1 XGH       0.015000
     35 C18         -7.4970   -30.2530     4.5660 ca         1 XGH      -0.166500
     36 C17         -6.7520   -31.3920     4.8200 ca         1 XGH       0.228000
     37 F           -6.1100   -31.9870     3.7930 f          1 XGH      -0.170000
     38 C16         -6.6300   -31.9450     6.0840 ca         1 XGH      -0.166500
     39 C15         -7.2930   -31.3370     7.1380 ca         1 XGH       0.015000
     40 H1         -10.6970   -36.7490     8.6670 ho         1 XGH       0.479000
     41 H2         -10.2040   -34.9920     7.4140 ha         1 XGH       0.138000
     42 H3         -10.6600   -30.2910     5.6560 h1         1 XGH       0.101700
     43 H4         -13.5310   -31.2370     6.0110 hc         1 XGH       0.075700
     44 H5         -12.6570   -31.1960     4.4760 hc         1 XGH       0.075700
     45 H6         -14.7460   -29.4880     6.3510 hn         1 XGH       0.310500
     46 H7         -15.8040   -27.5300     5.5320 h1         1 XGH       0.064200
     47 H8         -14.2620   -26.9970     4.8460 h1         1 XGH       0.064200
     48 H9         -12.4310   -27.1810     7.2800 hc         1 XGH       0.046867
     49 H10        -12.6270   -25.7510     6.2590 hc         1 XGH       0.046867
     50 H11        -12.8740   -25.6370     8.0130 hc         1 XGH       0.046867
     51 H12        -16.0910   -25.4820     6.6870 ho         1 XGH       0.435000
     52 H13        -14.5630   -28.1830     8.4380 hc         1 XGH       0.046867
     53 H14        -14.9510   -26.5750     9.0620 hc         1 XGH       0.046867
     54 H15        -16.1350   -27.4530     8.0750 hc         1 XGH       0.046867
     55 H16        -11.7200   -29.2460     7.6000 h1         1 XGH       0.089200
     56 H17        -12.3400   -30.7970     8.1550 h1         1 XGH       0.089200
     57 H18         -9.3660   -31.4490    10.7340 ha         1 XGH       0.157000
     58 H19         -8.8430   -33.7690    11.3000 ha         1 XGH       0.145000
     59 H20         -8.7630   -28.7680     5.4560 ha         1 XGH       0.142500
     60 H21         -7.5520   -29.8510     3.5630 ha         1 XGH       0.143000
     61 H22         -6.0270   -32.8310     6.2350 ha         1 XGH       0.143000
     62 H23         -7.2080   -31.7460     8.1340 ha         1 XGH       0.142500
@<TRIPOS>BOND
     1     1     2 1   
     2     2     3 1   
     3     2     4 1   
     4     2     5 1   
     5     5     6 1   
     6     5     7 1   
     7     5    11 1   
     8     6    40 1   
     9     7     8 1   
    10     7     9 1   
    11     7    10 1   
    12    11    12 ar  
    13    11    29 ar  
    14    12    13 ar  
    15    12    41 1   
    16    13    14 1   
    17    13    27 ar  
    18    14    15 1   
    19    15    16 1   
    20    15    25 1   
    21    15    42 1   
    22    16    17 1   
    23    16    43 1   
    24    16    44 1   
    25    17    18 1   
    26    17    24 2   
    27    18    19 1   
    28    18    45 1   
    29    19    20 1   
    30    19    46 1   
    31    19    47 1   
    32    20    21 1   
    33    20    22 1   
    34    20    23 1   
    35    21    48 1   
    36    21    49 1   
    37    21    50 1   
    38    22    51 1   
    39    23    52 1   
    40    23    53 1   
    41    23    54 1   
    42    25    26 1   
    43    25    55 1   
    44    25    56 1   
    45    26    27 1   
    46    26    30 1   
    47    27    28 ar  
    48    28    29 ar  
    49    28    57 1   
    50    29    58 1   
    51    30    31 2   
    52    30    32 2   
    53    30    33 1   
    54    33    34 ar  
    55    33    39 ar  
    56    34    35 ar  
    57    34    59 1   
    58    35    36 ar  
    59    35    60 1   
    60    36    37 1   
    61    36    38 ar  
    62    38    39 ar  
    63    38    61 1   
    64    39    62 1   
@<TRIPOS>SUBSTRUCTURE
     1 XGH         1 TEMP              0 ****  ****    0 ROOT
