@<TRIPOS>MOLECULE
XGJ
   14    14     1     0     0
SMALL
abcg2


@<TRIPOS>ATOM
      1 N01        -11.4160    29.5040   -15.0170 n8         1 XGJ      -1.030200
      2 C02        -11.3270    30.8120   -15.6020 c5         1 XGJ       0.567900
      3 N03        -11.0060    31.8100   -14.5790 n7         1 XGJ      -0.866400
      4 C04        -11.7070    33.0190   -15.0040 c5         1 XGJ       0.329000
      5 N05        -12.3940    32.6170   -16.2490 n7         1 XGJ      -0.647200
      6 N06        -12.6060    31.2150   -16.1600 n7         1 XGJ      -0.598200
      7 H011       -11.5520    28.8180   -15.7480 hn         1 XGJ       0.420000
      8 H1         -10.5320    29.2730   -14.5800 hn         1 XGJ       0.420000
      9 H021       -10.5870    30.8930   -16.4090 h3         1 XGJ       0.086700
     10 H2         -11.4200    31.4830   -13.7130 hn         1 XGJ       0.412000
     11 H041       -12.3880    33.3600   -14.2160 h2         1 XGJ       0.051700
     12 H042       -11.0200    33.8380   -15.2310 h2         1 XGJ       0.051700
     13 H051       -13.2810    33.0850   -16.3730 hn         1 XGJ       0.424000
     14 H061       -13.3030    31.0110   -15.4390 hn         1 XGJ       0.378000
@<TRIPOS>BOND
     1     1     2 1   
     2     1     7 1   
     3     1     8 1   
     4     2     3 1   
     5     2     6 1   
     6     2     9 1   
     7     3     4 1   
     8     3    10 1   
     9     4     5 1   
    10     4    11 1   
    11     4    12 1   
    12     5     6 1   
    13     5    13 1   
    14     6    14 1   
@<TRIPOS>SUBSTRUCTURE
     1 XGJ         1 TEMP              0 ****  ****    0 ROOT
