@<TRIPOS>MOLECULE
XGJ
   14    14     1     0     0
SMALL
No Charge or Current Charge


@<TRIPOS>ATOM
      1 N01        -11.5160    29.7350   -15.0160 n8         1 XGJ      -1.030200
      2 C02        -11.2900    30.8780   -15.7620 c5         1 XGJ       0.567900
      3 N03        -11.1730    31.7010   -14.6460 n7         1 XGJ      -0.866400
      4 C04        -11.5530    33.0030   -15.1660 c5         1 XGJ       0.329000
      5 N05        -12.7720    32.6410   -15.9030 n7         1 XGJ      -0.647200
      6 N06        -12.5880    31.2130   -16.2440 n7         1 XGJ      -0.598200
      7 H011       -11.2420    28.9480   -15.6100 hn         1 XGJ       0.420000
      8 H1         -10.7650    29.7530   -14.3230 hn         1 XGJ       0.420000
      9 H021       -10.4600    30.9840   -16.4860 h3         1 XGJ       0.086700
     10 H2         -11.9190    31.3880   -14.0340 hn         1 XGJ       0.412000
     11 H041       -11.7520    33.7340   -14.3700 h2         1 XGJ       0.051700
     12 H042       -10.7820    33.3810   -15.8540 h2         1 XGJ       0.051700
     13 H051       -13.5630    32.7800   -15.2520 hn         1 XGJ       0.424000
     14 H061       -13.1640    30.6000   -15.6550 hn         1 XGJ       0.378000
@<TRIPOS>BOND
     1     1     2 1   
     2     1     7 1   
     3     1     8 1   
     4     2     3 1   
     5     2     6 1   
     6     2     9 1   
     7     3     4 1   
     8     3    10 1   
     9     4     5 1   
    10     4    11 1   
    11     4    12 1   
    12     5     6 1   
    13     5    13 1   
    14     6    14 1   
@<TRIPOS>SUBSTRUCTURE
     1 XGJ         1 TEMP              0 ****  ****    0 ROOT
