@<TRIPOS>MOLECULE
XGK
   29    30     1     0     0
SMALL
abcg2


@<TRIPOS>ATOM
      1 C1         184.0330    85.7070    -0.5090 ca         1 XGK      -0.111600
      2 C3         186.4190    85.3500    -0.6540 ca         1 XGK      -0.116500
      3 C4         186.4560    84.7810     0.6230 ca         1 XGK      -0.113800
      4 C5         187.7390    84.3220     1.1470 ce         1 XGK      -0.089200
      5 C6         187.9570    83.7450     2.3380 cf         1 XGK      -0.219200
      6 C8         189.3000    82.7730     4.1610 ca         1 XGK      -0.076500
      7 C11        191.6250    82.8790     2.6770 ca         1 XGK      -0.174500
      8 C12        190.4340    83.3230     2.1340 ca         1 XGK      -0.076500
      9 C13        185.2470    84.6870     1.3240 ca         1 XGK      -0.116500
     10 C          182.7250    86.1970    -1.1220 c          1 XGK       0.711600
     11 O          182.8020    86.7180    -2.2510 o          1 XGK      -0.716500
     12 C10        191.6620    82.3770     3.9780 ca         1 XGK       0.116100
     13 C14        184.0650    85.1400     0.7650 ca         1 XGK      -0.098000
     14 C2         185.2330    85.8050    -1.2070 ca         1 XGK      -0.098000
     15 C7         189.2400    83.2850     2.8610 ca         1 XGK      -0.048800
     16 C9         190.4840    82.3250     4.7190 ca         1 XGK      -0.174500
     17 O2         181.6950    86.0280    -0.4400 o          1 XGK      -0.716500
     18 H2         187.3400    85.4350    -1.2200 ha         1 XGK       0.086000
     19 H3         188.5780    84.4820     0.4770 ha         1 XGK       0.155000
     20 H4         187.1180    83.5900     3.0110 ha         1 XGK       0.173000
     21 H5         188.3930    82.7250     4.7530 ha         1 XGK       0.113000
     22 H8         192.5330    82.9220     2.0850 ha         1 XGK       0.111000
     23 H9         190.4450    83.7020     1.1190 ha         1 XGK       0.113000
     24 H10        185.2240    84.2540     2.3160 ha         1 XGK       0.086000
     25 H11        183.1450    85.0550     1.3290 ha         1 XGK       0.128500
     26 H1         185.2380    86.2420    -2.1970 ha         1 XGK       0.128500
     27 H6         190.5000    81.9360     5.7290 ha         1 XGK       0.111000
     28 H7         193.5410    82.0260     3.9540 ho         1 XGK       0.458000
     29 O1         192.7930    81.9320     4.5560 oh         1 XGK      -0.542100
@<TRIPOS>BOND
     1     1    10 1   
     2     1    13 ar  
     3     1    14 ar  
     4     2     3 ar  
     5     2    14 ar  
     6     2    18 1   
     7     3     4 1   
     8     3     9 ar  
     9     4     5 2   
    10     4    19 1   
    11     5    15 1   
    12     5    20 1   
    13     6    15 ar  
    14     6    16 ar  
    15     6    21 1   
    16     7     8 ar  
    17     7    12 ar  
    18     7    22 1   
    19     8    15 ar  
    20     8    23 1   
    21     9    13 ar  
    22     9    24 1   
    23    10    11 1   
    24    10    17 1   
    25    12    16 ar  
    26    12    29 1   
    27    13    25 1   
    28    14    26 1   
    29    16    27 1   
    30    28    29 1   
@<TRIPOS>SUBSTRUCTURE
     1 XGK         1 TEMP              0 ****  ****    0 ROOT
