@<TRIPOS>MOLECULE
XGK
   29    30     1     0     0
SMALL
No Charge or Current Charge


@<TRIPOS>ATOM
      1 C1         183.9780    85.7270    -0.5400 ca         1 XGK      -0.111600
      2 C3         186.3930    85.3450    -0.7160 ca         1 XGK      -0.116500
      3 C4         186.4280    84.7910     0.5780 ca         1 XGK      -0.113800
      4 C5         187.7310    84.3120     1.1310 ce         1 XGK      -0.089200
      5 C6         187.9980    83.7510     2.3470 cf         1 XGK      -0.219200
      6 C8         189.3060    82.7250     4.2020 ca         1 XGK      -0.076500
      7 C11        191.6930    82.8860     2.7340 ca         1 XGK      -0.174500
      8 C12        190.4890    83.3500     2.1730 ca         1 XGK      -0.076500
      9 C13        185.2260    84.7080     1.3100 ca         1 XGK      -0.116500
     10 C          182.6700    86.2260    -1.1380 c          1 XGK       0.711600
     11 O          182.6830    86.7000    -2.2660 o          1 XGK      -0.716500
     12 C10        191.7020    82.3420     4.0270 ca         1 XGK       0.116100
     13 C14        184.0180    85.1700     0.7590 ca         1 XGK      -0.098000
     14 C2         185.1870    85.8070    -1.2690 ca         1 XGK      -0.098000
     15 C7         189.2820    83.2740     2.9030 ca         1 XGK      -0.048800
     16 C9         190.5110    82.2620     4.7610 ca         1 XGK      -0.174500
     17 O2         181.6480    86.1370    -0.4700 o          1 XGK      -0.716500
     18 H2         187.3070    85.4200    -1.3020 ha         1 XGK       0.086000
     19 H3         188.5610    84.4440     0.4390 ha         1 XGK       0.155000
     20 H4         187.1600    83.6240     3.0300 ha         1 XGK       0.173000
     21 H5         188.3900    82.6550     4.7840 ha         1 XGK       0.113000
     22 H8         192.6120    82.9530     2.1570 ha         1 XGK       0.111000
     23 H9         190.5080    83.7670     1.1710 ha         1 XGK       0.113000
     24 H10        185.2110    84.2880     2.3110 ha         1 XGK       0.086000
     25 H11        183.1080    85.0920     1.3490 ha         1 XGK       0.128500
     26 H1         185.1960    86.2290    -2.2720 ha         1 XGK       0.128500
     27 H6         190.5170    81.8410     5.7630 ha         1 XGK       0.111000
     28 H7         193.5870    82.0270     3.9240 ho         1 XGK       0.458000
     29 O1         192.8650    81.8920     4.5750 oh         1 XGK      -0.542100
@<TRIPOS>BOND
     1     1    10 1   
     2     1    13 ar  
     3     1    14 ar  
     4     2     3 ar  
     5     2    14 ar  
     6     2    18 1   
     7     3     4 1   
     8     3     9 ar  
     9     4     5 2   
    10     4    19 1   
    11     5    15 1   
    12     5    20 1   
    13     6    15 ar  
    14     6    16 ar  
    15     6    21 1   
    16     7     8 ar  
    17     7    12 ar  
    18     7    22 1   
    19     8    15 ar  
    20     8    23 1   
    21     9    13 ar  
    22     9    24 1   
    23    10    11 1   
    24    10    17 1   
    25    12    16 ar  
    26    12    29 1   
    27    13    25 1   
    28    14    26 1   
    29    16    27 1   
    30    28    29 1   
@<TRIPOS>SUBSTRUCTURE
     1 XGK         1 TEMP              0 ****  ****    0 ROOT
