@<TRIPOS>MOLECULE
XGM
   13    12     1     0     0
SMALL
No Charge or Current Charge


@<TRIPOS>ATOM
      1 C01        -10.5870    19.3550   -13.4430 c3         1 XGM      -0.098100
      2 C02        -11.4610    20.5010   -14.0030 c3         1 XGM      -0.154400
      3 C03        -12.9560    20.2350   -13.7940 c          1 XGM       0.585100
      4 O04        -13.5030    20.3370   -12.7030 o          1 XGM      -0.627100
      5 N05        -13.6760    19.8970   -14.9280 ns         1 XGM      -0.376400
      6 O06        -15.0550    19.4740   -14.8200 oh         1 XGM      -0.447100
      7 H012        -9.5230    19.5700   -13.6030 hc         1 XGM       0.041700
      8 H013       -10.7530    19.2300   -12.3660 hc         1 XGM       0.041700
      9 H011       -10.8240    18.4070   -13.9410 hc         1 XGM       0.041700
     10 H022       -11.1940    21.4250   -13.4780 hc         1 XGM       0.077700
     11 H021       -11.2450    20.6080   -15.0730 hc         1 XGM       0.077700
     12 H051       -13.1900    19.6670   -15.7950 hn         1 XGM       0.360500
     13 H061       -15.1670    19.3550   -13.8430 ho         1 XGM       0.476000
@<TRIPOS>BOND
     1     1     2 1   
     2     1     7 1   
     3     1     8 1   
     4     1     9 1   
     5     2     3 1   
     6     2    10 1   
     7     2    11 1   
     8     3     4 2   
     9     3     5 1   
    10     5     6 1   
    11     5    12 1   
    12     6    13 1   
@<TRIPOS>SUBSTRUCTURE
     1 XGM         1 TEMP              0 ****  ****    0 ROOT
