@<TRIPOS>MOLECULE
XGM
   13    12     1     0     0
SMALL
abcg2


@<TRIPOS>ATOM
      1 C01        -10.6540    19.3800   -14.0590 c3         1 XGM      -0.098100
      2 C02        -11.5070    20.5840   -13.6880 c3         1 XGM      -0.154400
      3 C03        -13.0040    20.4310   -13.7840 c          1 XGM       0.585100
      4 O04        -13.7900    21.2910   -13.3880 o          1 XGM      -0.627100
      5 N05        -13.4620    19.3140   -14.3480 ns         1 XGM      -0.376400
      6 O06        -14.8120    19.1030   -14.4450 oh         1 XGM      -0.447100
      7 H012        -9.6010    19.6210   -13.9260 hc         1 XGM       0.041700
      8 H013       -10.8710    18.5170   -13.4290 hc         1 XGM       0.041700
      9 H011       -10.7850    19.0880   -15.1020 hc         1 XGM       0.041700
     10 H022       -11.2950    20.8900   -12.6610 hc         1 XGM       0.077700
     11 H021       -11.2410    21.4400   -14.3130 hc         1 XGM       0.077700
     12 H051       -12.9170    18.5150   -14.6270 hn         1 XGM       0.360500
     13 H061       -15.1940    19.8890   -14.0180 ho         1 XGM       0.476000
@<TRIPOS>BOND
     1     1     2 1   
     2     1     7 1   
     3     1     8 1   
     4     1     9 1   
     5     2     3 1   
     6     2    10 1   
     7     2    11 1   
     8     3     4 2   
     9     3     5 1   
    10     5     6 1   
    11     5    12 1   
    12     6    13 1   
@<TRIPOS>SUBSTRUCTURE
     1 XGM         1 TEMP              0 ****  ****    0 ROOT
