@<TRIPOS>MOLECULE
XGN
   72    75     1     0     0
SMALL
No Charge or Current Charge


@<TRIPOS>ATOM
      1 CBI        -18.7630    12.9030   -18.3680 c6         1 XGN       0.065000
      2 CBJ        -17.4460    13.2120   -17.6140 c6         1 XGN       0.145600
      3 OBK        -16.6280    14.1070   -18.3840 os         1 XGN      -0.452000
      4 CBL        -17.2630    15.3830   -18.5750 c6         1 XGN       0.145600
      5 CBM        -18.5890    15.2320   -19.3690 c6         1 XGN       0.065000
      6 NBF        -19.4750    14.0930   -18.9430 n          1 XGN      -0.418800
      7 C          -20.7630    13.9000   -19.5140 c          1 XGN       0.575100
      8 O          -21.2460    12.7710   -19.5440 o          1 XGN      -0.574100
      9 CA         -21.5830    15.1350   -20.0440 c3         1 XGN       0.151800
     10 N          -22.9150    15.3030   -19.3850 nu         1 XGN      -0.812200
     11 CAV        -23.9840    14.4620   -19.5350 cc         1 XGN       0.309000
     12 CAW        -24.1950    13.7440   -20.6780 cd         1 XGN      -0.444200
     13 CAX        -25.3500    12.8730   -20.8780 c          1 XGN       0.576200
     14 OBA        -25.5060    12.2420   -21.9140 o          1 XGN      -0.582000
     15 NAY        -26.2540    12.8180   -19.8020 n          1 XGN      -0.280000
     16 CBC        -27.4380    11.9400   -19.9300 c3         1 XGN       0.083300
     17 CAZ        -26.0480    13.5550   -18.6380 cd         1 XGN       0.005600
     18 CAU        -24.9650    14.4050   -18.4730 cc         1 XGN      -0.172200
     19 CAA        -24.8960    15.0170   -17.1190 ca         1 XGN      -0.079800
     20 CAF        -26.0890    15.5330   -16.5560 ca         1 XGN      -0.060000
     21 CAE        -26.1360    16.1000   -15.2620 ca         1 XGN      -0.149300
     22 CAH        -27.4740    16.6610   -14.7320 c3         1 XGN       0.237300
     23 CAI        -27.9000    17.8950   -15.5590 c3         1 XGN      -0.099100
     24 CAJ        -27.4620    17.0170   -13.2250 c3         1 XGN      -0.099100
     25 OAK        -28.4750    15.6590   -14.9050 oh         1 XGN      -0.655000
     26 CAD        -24.9430    16.1460   -14.5090 ca         1 XGN      -0.065000
     27 CAC        -23.7520    15.6340   -15.0400 ca         1 XGN      -0.192000
     28 CAB        -23.7170    15.0740   -16.3290 ca         1 XGN       0.143100
     29 OAG        -22.5350    14.5440   -16.7910 os         1 XGN      -0.227200
     30 CAL        -21.6940    13.8030   -15.9930 ca         1 XGN       0.068100
     31 CAM        -22.0190    12.4600   -15.6900 ca         1 XGN      -0.041300
     32 CAR        -23.2890    11.8180   -16.2380 c3         1 XGN      -0.050800
     33 CAN        -21.1460    11.7080   -14.8820 ca         1 XGN      -0.154500
     34 CAO        -19.9680    12.2860   -14.3890 ca         1 XGN       0.179000
     35 FAT        -19.1360    11.5570   -13.6140 f          1 XGN      -0.177000
     36 CAP        -19.6410    13.6140   -14.7000 ca         1 XGN      -0.154500
     37 CAQ        -20.4960    14.3800   -15.5150 ca         1 XGN      -0.041300
     38 CAS        -20.1220    15.8180   -15.8590 c3         1 XGN      -0.050800
     39 H1         -18.5360    12.2050   -19.1870 h1         1 XGN       0.058450
     40 H2         -19.4380    12.3770   -17.6780 h1         1 XGN       0.058450
     41 H3         -16.8920    12.2800   -17.4310 h1         1 XGN       0.053950
     42 H4         -17.6670    13.6720   -16.6410 h1         1 XGN       0.053950
     43 H5         -17.4660    15.8320   -17.5920 h1         1 XGN       0.053950
     44 H6         -16.5790    16.0520   -19.1150 h1         1 XGN       0.053950
     45 H7         -19.1190    16.1860   -19.2670 h1         1 XGN       0.058450
     46 H8         -18.3470    15.1050   -20.4340 h1         1 XGN       0.058450
     47 H9         -21.0120    16.0540   -19.8940 h1         1 XGN       0.064700
     48 H10        -21.6930    15.0130   -21.1290 h1         1 XGN       0.064700
     49 H11        -22.8820    15.6640   -18.4310 hn         1 XGN       0.502000
     50 H12        -23.5150    13.7760   -21.5150 ha         1 XGN       0.203000
     51 H13        -28.0760    12.0100   -19.0400 h1         1 XGN       0.050367
     52 H14        -28.0260    12.2370   -20.8080 h1         1 XGN       0.050367
     53 H15        -27.1130    10.8990   -20.0510 h1         1 XGN       0.050367
     54 H16        -26.8020    13.3730   -17.8790 h4         1 XGN       0.194000
     55 H17        -27.0020    15.5190   -17.1460 ha         1 XGN       0.129000
     56 H18        -27.1490    18.6890   -15.4770 hc         1 XGN       0.044033
     57 H19        -28.0140    17.6450   -16.6200 hc         1 XGN       0.044033
     58 H20        -28.8580    18.2940   -15.2030 hc         1 XGN       0.044033
     59 H21        -26.7790    17.8510   -13.0240 hc         1 XGN       0.044033
     60 H22        -28.4610    17.3220   -12.8900 hc         1 XGN       0.044033
     61 H23        -27.1520    16.1580   -12.6180 hc         1 XGN       0.044033
     62 H24        -28.1080    14.8380   -14.5150 ho         1 XGN       0.443000
     63 H25        -24.9150    16.5760   -13.5120 ha         1 XGN       0.113000
     64 H26        -22.8510    15.6720   -14.4360 ha         1 XGN       0.130000
     65 H27        -23.3860    11.9910   -17.3160 hc         1 XGN       0.051367
     66 H28        -23.2980    10.7340   -16.0790 hc         1 XGN       0.051367
     67 H29        -24.1800    12.2320   -15.7500 hc         1 XGN       0.051367
     68 H30        -21.3760    10.6750   -14.6340 ha         1 XGN       0.134500
     69 H31        -18.7210    14.0420   -14.3100 ha         1 XGN       0.134500
     70 H32        -20.6920    16.5290   -15.2490 hc         1 XGN       0.051367
     71 H33        -19.0580    16.0110   -15.6830 hc         1 XGN       0.051367
     72 H34        -20.3250    16.0440   -16.9120 hc         1 XGN       0.051367
@<TRIPOS>BOND
     1     1     2 1   
     2     1     6 1   
     3     1    39 1   
     4     1    40 1   
     5     2     3 1   
     6     2    41 1   
     7     2    42 1   
     8     3     4 1   
     9     4     5 1   
    10     4    43 1   
    11     4    44 1   
    12     5     6 1   
    13     5    45 1   
    14     5    46 1   
    15     6     7 1   
    16     7     8 2   
    17     7     9 1   
    18     9    10 1   
    19     9    47 1   
    20     9    48 1   
    21    10    11 1   
    22    10    49 1   
    23    11    12 2   
    24    11    18 1   
    25    12    13 1   
    26    12    50 1   
    27    13    14 2   
    28    13    15 1   
    29    15    16 1   
    30    15    17 1   
    31    16    51 1   
    32    16    52 1   
    33    16    53 1   
    34    17    18 2   
    35    17    54 1   
    36    18    19 1   
    37    19    20 ar  
    38    19    28 ar  
    39    20    21 ar  
    40    20    55 1   
    41    21    22 1   
    42    21    26 ar  
    43    22    23 1   
    44    22    24 1   
    45    22    25 1   
    46    23    56 1   
    47    23    57 1   
    48    23    58 1   
    49    24    59 1   
    50    24    60 1   
    51    24    61 1   
    52    25    62 1   
    53    26    27 ar  
    54    26    63 1   
    55    27    28 ar  
    56    27    64 1   
    57    28    29 1   
    58    29    30 1   
    59    30    31 ar  
    60    30    37 ar  
    61    31    32 1   
    62    31    33 ar  
    63    32    65 1   
    64    32    66 1   
    65    32    67 1   
    66    33    34 ar  
    67    33    68 1   
    68    34    35 1   
    69    34    36 ar  
    70    36    37 ar  
    71    36    69 1   
    72    37    38 1   
    73    38    70 1   
    74    38    71 1   
    75    38    72 1   
@<TRIPOS>SUBSTRUCTURE
     1 XGN         1 TEMP              0 ****  ****    0 ROOT
