@<TRIPOS>MOLECULE
XGN
   72    75     1     0     0
SMALL
abcg2


@<TRIPOS>ATOM
      1 CBI        -17.9740    13.8290   -19.7580 c6         1 XGN       0.065000
      2 CBJ        -17.4130    13.7000   -21.1620 c6         1 XGN       0.145600
      3 OBK        -17.0900    14.9440   -21.7610 os         1 XGN      -0.452000
      4 CBL        -17.5050    16.0720   -21.0310 c6         1 XGN       0.145600
      5 CBM        -18.9420    15.9570   -20.5620 c6         1 XGN       0.065000
      6 NBF        -19.0970    14.7520   -19.7530 n          1 XGN      -0.418800
      7 C          -20.2020    14.4830   -19.0320 c          1 XGN       0.575100
      8 O          -20.3130    13.4940   -18.3240 o          1 XGN      -0.574100
      9 CA         -21.3290    15.5110   -19.1460 c3         1 XGN       0.151800
     10 N          -22.5150    15.1290   -18.4500 nu         1 XGN      -0.812200
     11 CAV        -23.3690    14.1740   -18.8720 cc         1 XGN       0.309000
     12 CAW        -23.1990    13.4830   -20.0530 cd         1 XGN      -0.444200
     13 CAX        -24.1290    12.5130   -20.5210 c          1 XGN       0.576200
     14 OBA        -24.0190    11.8720   -21.5680 o          1 XGN      -0.582000
     15 NAY        -25.2400    12.2970   -19.7050 n          1 XGN      -0.280000
     16 CBC        -26.2180    11.3110   -20.1330 c3         1 XGN       0.083300
     17 CAZ        -25.4090    12.9710   -18.5450 cd         1 XGN       0.005600
     18 CAU        -24.5340    13.8940   -18.0780 cc         1 XGN      -0.172200
     19 CAA        -24.8210    14.6080   -16.8140 ca         1 XGN      -0.079800
     20 CAF        -25.8230    15.5750   -16.7670 ca         1 XGN      -0.060000
     21 CAE        -26.1570    16.2450   -15.5960 ca         1 XGN      -0.149300
     22 CAH        -27.2390    17.3210   -15.5660 c3         1 XGN       0.237300
     23 CAI        -26.5810    18.6850   -15.3660 c3         1 XGN      -0.099100
     24 CAJ        -28.2430    17.0450   -14.4450 c3         1 XGN      -0.099100
     25 OAK        -27.9170    17.3930   -16.8060 oh         1 XGN      -0.655000
     26 CAD        -25.4370    15.9250   -14.4480 ca         1 XGN      -0.065000
     27 CAC        -24.4320    14.9710   -14.4610 ca         1 XGN      -0.192000
     28 CAB        -24.1190    14.3120   -15.6440 ca         1 XGN       0.143100
     29 OAG        -23.1430    13.3670   -15.7400 os         1 XGN      -0.227200
     30 CAL        -22.4830    12.9920   -14.5930 ca         1 XGN       0.068100
     31 CAM        -22.9530    11.8770   -13.9030 ca         1 XGN      -0.041300
     32 CAR        -24.1450    11.1140   -14.3980 c3         1 XGN      -0.050800
     33 CAN        -22.2820    11.4890   -12.7470 ca         1 XGN      -0.154500
     34 CAO        -21.1890    12.2190   -12.3260 ca         1 XGN       0.179000
     35 FAT        -20.5610    11.8500   -11.1970 f          1 XGN      -0.177000
     36 CAP        -20.7170    13.3140   -13.0200 ca         1 XGN      -0.154500
     37 CAQ        -21.3700    13.7210   -14.1790 ca         1 XGN      -0.041300
     38 CAS        -20.8900    14.9100   -14.9560 c3         1 XGN      -0.050800
     39 H1         -18.3110    12.8500   -19.4270 h1         1 XGN       0.058450
     40 H2         -17.2020    14.1570   -19.0550 h1         1 XGN       0.058450
     41 H3         -18.1450    13.1810   -21.7910 h1         1 XGN       0.053950
     42 H4         -16.5140    13.0790   -21.1240 h1         1 XGN       0.053950
     43 H5         -16.8470    16.2640   -20.1730 h1         1 XGN       0.053950
     44 H6         -17.4220    16.9350   -21.6940 h1         1 XGN       0.053950
     45 H7         -19.1850    16.8520   -19.9850 h1         1 XGN       0.058450
     46 H8         -19.6090    15.9320   -21.4300 h1         1 XGN       0.058450
     47 H9         -20.9880    16.4590   -18.7240 h1         1 XGN       0.064700
     48 H10        -21.5490    15.7130   -20.1990 h1         1 XGN       0.064700
     49 H11        -22.6970    15.5770   -17.5680 hn         1 XGN       0.502000
     50 H12        -22.3410    13.6500   -20.6900 ha         1 XGN       0.203000
     51 H13        -27.0090    11.2510   -19.3920 h1         1 XGN       0.050367
     52 H14        -26.6570    11.5890   -21.0890 h1         1 XGN       0.050367
     53 H15        -25.7600    10.3290   -20.2330 h1         1 XGN       0.050367
     54 H16        -26.3030    12.7300   -17.9850 h4         1 XGN       0.194000
     55 H17        -26.3430    15.8020   -17.6880 ha         1 XGN       0.129000
     56 H18        -26.0220    18.7080   -14.4320 hc         1 XGN       0.044033
     57 H19        -25.8870    18.9060   -16.1780 hc         1 XGN       0.044033
     58 H20        -27.3330    19.4750   -15.3280 hc         1 XGN       0.044033
     59 H21        -27.7710    17.0520   -13.4620 hc         1 XGN       0.044033
     60 H22        -29.0220    17.8080   -14.4420 hc         1 XGN       0.044033
     61 H23        -28.7170    16.0700   -14.5750 hc         1 XGN       0.044033
     62 H24        -28.4630    16.6050   -16.9040 ho         1 XGN       0.443000
     63 H25        -25.6480    16.4250   -13.5110 ha         1 XGN       0.113000
     64 H26        -23.9050    14.7480   -13.5430 ha         1 XGN       0.130000
     65 H27        -23.9700    10.7060   -15.3940 hc         1 XGN       0.051367
     66 H28        -24.3770    10.2840   -13.7330 hc         1 XGN       0.051367
     67 H29        -25.0330    11.7450   -14.4620 hc         1 XGN       0.051367
     68 H30        -22.6170    10.6300   -12.1800 ha         1 XGN       0.134500
     69 H31        -19.8510    13.8560   -12.6610 ha         1 XGN       0.134500
     70 H32        -21.6360    15.7070   -14.9750 hc         1 XGN       0.051367
     71 H33        -19.9820    15.3190   -14.5170 hc         1 XGN       0.051367
     72 H34        -20.6760    14.6460   -15.9920 hc         1 XGN       0.051367
@<TRIPOS>BOND
     1     1     2 1   
     2     1     6 1   
     3     1    39 1   
     4     1    40 1   
     5     2     3 1   
     6     2    41 1   
     7     2    42 1   
     8     3     4 1   
     9     4     5 1   
    10     4    43 1   
    11     4    44 1   
    12     5     6 1   
    13     5    45 1   
    14     5    46 1   
    15     6     7 1   
    16     7     8 2   
    17     7     9 1   
    18     9    10 1   
    19     9    47 1   
    20     9    48 1   
    21    10    11 1   
    22    10    49 1   
    23    11    12 2   
    24    11    18 1   
    25    12    13 1   
    26    12    50 1   
    27    13    14 2   
    28    13    15 1   
    29    15    16 1   
    30    15    17 1   
    31    16    51 1   
    32    16    52 1   
    33    16    53 1   
    34    17    18 2   
    35    17    54 1   
    36    18    19 1   
    37    19    20 ar  
    38    19    28 ar  
    39    20    21 ar  
    40    20    55 1   
    41    21    22 1   
    42    21    26 ar  
    43    22    23 1   
    44    22    24 1   
    45    22    25 1   
    46    23    56 1   
    47    23    57 1   
    48    23    58 1   
    49    24    59 1   
    50    24    60 1   
    51    24    61 1   
    52    25    62 1   
    53    26    27 ar  
    54    26    63 1   
    55    27    28 ar  
    56    27    64 1   
    57    28    29 1   
    58    29    30 1   
    59    30    31 ar  
    60    30    37 ar  
    61    31    32 1   
    62    31    33 ar  
    63    32    65 1   
    64    32    66 1   
    65    32    67 1   
    66    33    34 ar  
    67    33    68 1   
    68    34    35 1   
    69    34    36 ar  
    70    36    37 ar  
    71    36    69 1   
    72    37    38 1   
    73    38    70 1   
    74    38    71 1   
    75    38    72 1   
@<TRIPOS>SUBSTRUCTURE
     1 XGN         1 TEMP              0 ****  ****    0 ROOT
