@<TRIPOS>MOLECULE
XGQ
   29    30     1     0     0
SMALL
No Charge or Current Charge


@<TRIPOS>ATOM
      1 C9         118.5490   -38.4840     1.1570 ce         1 XGQ      -0.101200
      2 C3         116.4750   -38.7820    -2.8850 ca         1 XGQ      -0.178000
      3 C4         117.0030   -38.8110    -1.5820 ca         1 XGQ      -0.064500
      4 C6         119.2310   -39.1370    -2.4970 ca         1 XGQ      -0.064500
      5 C8         118.9730   -39.0270    -0.0220 cf         1 XGQ      -0.205200
      6 C11        116.6490   -37.7190     2.5960 ca         1 XGQ      -0.122000
      7 C13        115.2920   -35.7600     2.0160 ca         1 XGQ      -0.118600
      8 C18        117.1420   -36.4750     0.5750 ca         1 XGQ      -0.122000
      9 C17        116.0870   -35.5910     0.8580 ca         1 XGQ      -0.096500
     10 C14        114.1480   -34.8040     2.3250 c          1 XGQ       0.712600
     11 C2         117.3230   -38.9250    -3.9920 ca         1 XGQ       0.123100
     12 C10        117.4220   -37.5530     1.4350 ca         1 XGQ      -0.116800
     13 C12        115.5930   -36.8370     2.8830 ca         1 XGQ      -0.096500
     14 C5         118.7010   -39.1070    -3.7990 ca         1 XGQ      -0.178000
     15 C7         118.3900   -38.9750    -1.3770 ca         1 XGQ      -0.062800
     16 O15        113.4870   -34.9880     3.3380 o          1 XGQ      -0.718000
     17 O16        113.9280   -33.8820     1.5510 o          1 XGQ      -0.718000
     18 H9         119.1290   -38.7310     2.0480 ha         1 XGQ       0.157000
     19 H3         115.4060   -38.6540    -3.0330 ha         1 XGQ       0.114000
     20 H4         116.3290   -38.7250    -0.7350 ha         1 XGQ       0.119500
     21 H6         120.3000   -39.2790    -2.3570 ha         1 XGQ       0.119500
     22 H8         119.8720   -39.6430     0.0350 ha         1 XGQ       0.154000
     23 H11        116.8620   -38.5390     3.2780 ha         1 XGQ       0.089500
     24 H18        117.7470   -36.3180    -0.3150 ha         1 XGQ       0.089500
     25 H17        115.8900   -34.7700     0.1720 ha         1 XGQ       0.128000
     26 H12        115.0070   -36.9940     3.7870 ha         1 XGQ       0.128000
     27 H5         119.3670   -39.2260    -4.6510 ha         1 XGQ       0.114000
     28 H1         117.5360   -39.0130    -5.8910 ho         1 XGQ       0.454000
     29 O1         116.8030   -38.8960    -5.2500 oh         1 XGQ      -0.539100
@<TRIPOS>BOND
     1     1     5 2   
     2     1    12 1   
     3     1    18 1   
     4     2     3 ar  
     5     2    11 ar  
     6     2    19 1   
     7     3    15 ar  
     8     3    20 1   
     9     4    14 ar  
    10     4    15 ar  
    11     4    21 1   
    12     5    15 1   
    13     5    22 1   
    14     6    12 ar  
    15     6    13 ar  
    16     6    23 1   
    17     7     9 ar  
    18     7    10 1   
    19     7    13 ar  
    20     8     9 ar  
    21     8    12 ar  
    22     8    24 1   
    23     9    25 1   
    24    10    16 1   
    25    10    17 1   
    26    11    14 ar  
    27    11    29 1   
    28    13    26 1   
    29    14    27 1   
    30    28    29 1   
@<TRIPOS>SUBSTRUCTURE
     1 XGQ         1 TEMP              0 ****  ****    0 ROOT
