@<TRIPOS>MOLECULE
XGS
   11    11     1     0     0
SMALL
No Charge or Current Charge


@<TRIPOS>ATOM
      1 O01         -6.0240     6.9050     1.4840 o          1 XGS      -0.518000
      2 S02         -5.6290     7.7310     0.3400 s6         1 XGS       1.133100
      3 O03         -6.4720     7.9720    -0.8310 o          1 XGS      -0.518000
      4 C04         -4.5270     9.0520     0.7000 cy         1 XGS      -0.320400
      5 C05         -3.2360     8.3120     0.0970 cy         1 XGS       0.186800
      6 N06         -4.2050     7.1570    -0.2180 n6         1 XGS      -0.828300
      7 H041        -4.8240     9.9540     0.1620 h1         1 XGS       0.117200
      8 H042        -4.4840     9.2260     1.7770 h1         1 XGS       0.117200
      9 H051        -2.7870     8.8160    -0.7690 h1         1 XGS       0.073700
     10 H052        -2.4660     8.0950     0.8490 h1         1 XGS       0.073700
     11 H061        -4.4590     7.0450    -1.1980 hn         1 XGS       0.485000
@<TRIPOS>BOND
     1     1     2 2   
     2     2     3 2   
     3     2     4 1   
     4     2     6 1   
     5     4     5 1   
     6     4     7 1   
     7     4     8 1   
     8     5     6 1   
     9     5     9 1   
    10     5    10 1   
    11     6    11 1   
@<TRIPOS>SUBSTRUCTURE
     1 XGS         1 TEMP              0 ****  ****    0 ROOT
