@<TRIPOS>MOLECULE
XGS
   11    11     1     0     0
SMALL
abcg2


@<TRIPOS>ATOM
      1 O01         -6.2930     7.0470     1.3090 o          1 XGS      -0.518000
      2 S02         -5.6090     7.7760     0.2580 s6         1 XGS       1.133100
      3 O03         -6.3950     8.1540    -0.9070 o          1 XGS      -0.518000
      4 C04         -4.4910     9.0780     0.8090 cy         1 XGS      -0.320400
      5 C05         -3.3830     8.3540     0.0290 cy         1 XGS       0.186800
      6 N06         -4.1310     7.0920    -0.1360 n6         1 XGS      -0.828300
      7 H041        -4.7700    10.0700     0.4660 h1         1 XGS       0.117200
      8 H042        -4.3690     9.0590     1.8900 h1         1 XGS       0.117200
      9 H051        -3.1560     8.8480    -0.9160 h1         1 XGS       0.073700
     10 H052        -2.4670     8.2100     0.5970 h1         1 XGS       0.073700
     11 H061        -4.0490     6.5750    -1.0050 hn         1 XGS       0.485000
@<TRIPOS>BOND
     1     1     2 2   
     2     2     3 2   
     3     2     4 1   
     4     2     6 1   
     5     4     5 1   
     6     4     7 1   
     7     4     8 1   
     8     5     6 1   
     9     5     9 1   
    10     5    10 1   
    11     6    11 1   
@<TRIPOS>SUBSTRUCTURE
     1 XGS         1 TEMP              0 ****  ****    0 ROOT
