@<TRIPOS>MOLECULE
XGT
   33    35     1     0     0
SMALL
abcg2


@<TRIPOS>ATOM
      1 C4          20.4190   -43.8590    12.7330 ca         1 XGT      -0.078000
      2 C7          20.3440   -42.8920    10.1370 ca         1 XGT      -0.122500
      3 C6          21.4740   -42.6910    10.9160 ca         1 XGT      -0.078000
      4 C13         24.4300   -43.6780    16.1660 ca         1 XGT      -0.128500
      5 C8          22.7050   -42.9690    13.0760 cc         1 XGT       0.504900
      6 C18         23.4890   -43.8240    17.2000 ca         1 XGT      -0.063600
      7 C16         25.2310   -44.7110    18.6430 ca         1 XGT      -0.122000
      8 C19         22.0440   -43.3560    17.0790 c          1 XGT       0.713600
      9 C2          19.2350   -43.5800    10.6330 ca         1 XGT      -0.085300
     10 C3          19.2950   -44.0560    11.9460 ca         1 XGT      -0.122500
     11 C5          21.5310   -43.1740    12.2270 ca         1 XGT      -0.117500
     12 N9          22.8730   -43.5200    14.2470 nd         1 XGT      -0.581000
     13 C10         24.0550   -43.1480    14.8430 cd         1 XGT       0.408500
     14 C11         24.8160   -42.2900    14.0950 cc         1 XGT      -0.268000
     15 S12         24.0310   -41.9260    12.6130 ss         1 XGT      -0.133400
     16 C14         25.7590   -44.0540    16.3940 ca         1 XGT      -0.112000
     17 C15         26.1650   -44.5550    17.6230 ca         1 XGT      -0.156000
     18 C17         23.9050   -44.3580    18.4200 ca         1 XGT      -0.107000
     19 O20         21.8710   -42.1240    16.9130 o          1 XGT      -0.714000
     20 O21         21.1540   -44.2330    17.2060 o          1 XGT      -0.714000
     21 HC4         20.4440   -44.2270    13.7490 ha         1 XGT       0.138000
     22 HC7         20.3230   -42.5060     9.1240 ha         1 XGT       0.104500
     23 HC6         22.3170   -42.1580    10.4950 ha         1 XGT       0.138000
     24 HC16        25.5310   -45.1090    19.6040 ha         1 XGT       0.087000
     25 HC1B        18.1170   -44.7730     9.2410 hc         1 XGT       0.034033
     26 HC1A        17.1170   -43.8750    10.3790 hc         1 XGT       0.034033
     27 HC1C        17.9040   -43.0370     9.0290 hc         1 XGT       0.034033
     28 HC3         18.4440   -44.5840    12.3590 ha         1 XGT       0.104500
     29 HC11        25.7650   -41.8470    14.3460 h4         1 XGT       0.150000
     30 HC14        26.4760   -43.9660    15.5870 ha         1 XGT       0.088000
     31 HC15        27.1990   -44.8360    17.7780 ha         1 XGT       0.086000
     32 HC17        23.1760   -44.4800    19.2120 ha         1 XGT       0.118000
     33 C1          18.0250   -43.8230     9.7760 c3         1 XGT      -0.040800
@<TRIPOS>BOND
     1     1    10 ar  
     2     1    11 ar  
     3     1    21 1   
     4     2     3 ar  
     5     2     9 ar  
     6     2    22 1   
     7     3    11 ar  
     8     3    23 1   
     9     4     6 ar  
    10     4    13 1   
    11     4    16 ar  
    12     5    11 1   
    13     5    12 2   
    14     5    15 1   
    15     6     8 1   
    16     6    18 ar  
    17     7    17 ar  
    18     7    18 ar  
    19     7    24 1   
    20     8    19 1   
    21     8    20 1   
    22     9    10 ar  
    23     9    33 1   
    24    10    28 1   
    25    12    13 1   
    26    13    14 2   
    27    14    15 1   
    28    14    29 1   
    29    16    17 ar  
    30    16    30 1   
    31    17    31 1   
    32    18    32 1   
    33    25    33 1   
    34    26    33 1   
    35    27    33 1   
@<TRIPOS>SUBSTRUCTURE
     1 XGT         1 TEMP              0 ****  ****    0 ROOT
