@<TRIPOS>MOLECULE
XGT
   33    35     1     0     0
SMALL
No Charge or Current Charge


@<TRIPOS>ATOM
      1 C4          20.3640   -43.7210    12.7550 ca         1 XGT      -0.078000
      2 C7          20.3440   -42.9330    10.0660 ca         1 XGT      -0.122500
      3 C6          21.5210   -42.8090    10.8240 ca         1 XGT      -0.078000
      4 C13         24.4510   -43.6270    16.1920 ca         1 XGT      -0.128500
      5 C8          22.7790   -43.0790    12.9930 cc         1 XGT       0.504900
      6 C18         23.4770   -44.0170    17.1680 ca         1 XGT      -0.063600
      7 C16         25.2560   -44.4510    18.7960 ca         1 XGT      -0.122000
      8 C19         21.9830   -43.9750    16.9310 c          1 XGT       0.713600
      9 C2          19.1720   -43.4480    10.6450 ca         1 XGT      -0.085300
     10 C3          19.1900   -43.8430    11.9930 ca         1 XGT      -0.122500
     11 C5          21.5500   -43.2000    12.1850 ca         1 XGT      -0.117500
     12 N9          22.8440   -43.4640    14.2600 nd         1 XGT      -0.581000
     13 C10         24.1030   -43.2350    14.7930 cd         1 XGT       0.408500
     14 C11         25.0010   -42.7150    13.8820 cc         1 XGT      -0.268000
     15 S12         24.2610   -42.4250    12.3370 ss         1 XGT      -0.133400
     16 C14         25.8180   -43.6640    16.5700 ca         1 XGT      -0.112000
     17 C15         26.2140   -44.0680    17.8530 ca         1 XGT      -0.156000
     18 C17         23.8990   -44.4240    18.4530 ca         1 XGT      -0.107000
     19 O20         21.4170   -42.8950    17.0420 o          1 XGT      -0.714000
     20 O21         21.3880   -45.0410    16.8290 o          1 XGT      -0.714000
     21 HC4         20.3440   -44.0350    13.7980 ha         1 XGT       0.138000
     22 HC7         20.3460   -42.6280     9.0220 ha         1 XGT       0.104500
     23 HC6         22.4060   -42.4060    10.3370 ha         1 XGT       0.138000
     24 HC16        25.5630   -44.7650    19.7920 ha         1 XGT       0.087000
     25 HC1B        17.8600   -44.5620     9.3260 hc         1 XGT       0.034033
     26 HC1A        17.0060   -43.4860    10.4440 hc         1 XGT       0.034033
     27 HC1C        17.8460   -42.8130     9.0410 hc         1 XGT       0.034033
     28 HC3         18.2920   -44.2470    12.4540 ha         1 XGT       0.104500
     29 HC11        26.0420   -42.4620    14.0170 h4         1 XGT       0.150000
     30 HC14        26.5990   -43.3950    15.8660 ha         1 XGT       0.088000
     31 HC15        27.2700   -44.0890    18.1130 ha         1 XGT       0.086000
     32 HC17        23.1570   -44.7120    19.1950 ha         1 XGT       0.118000
     33 C1          17.9020   -43.5840     9.8190 c3         1 XGT      -0.040800
@<TRIPOS>BOND
     1     1    10 ar  
     2     1    11 ar  
     3     1    21 1   
     4     2     3 ar  
     5     2     9 ar  
     6     2    22 1   
     7     3    11 ar  
     8     3    23 1   
     9     4     6 ar  
    10     4    13 1   
    11     4    16 ar  
    12     5    11 1   
    13     5    12 2   
    14     5    15 1   
    15     6     8 1   
    16     6    18 ar  
    17     7    17 ar  
    18     7    18 ar  
    19     7    24 1   
    20     8    19 1   
    21     8    20 1   
    22     9    10 ar  
    23     9    33 1   
    24    10    28 1   
    25    12    13 1   
    26    13    14 2   
    27    14    15 1   
    28    14    29 1   
    29    16    17 ar  
    30    16    30 1   
    31    17    31 1   
    32    18    32 1   
    33    25    33 1   
    34    26    33 1   
    35    27    33 1   
@<TRIPOS>SUBSTRUCTURE
     1 XGT         1 TEMP              0 ****  ****    0 ROOT
