@<TRIPOS>MOLECULE
XGV
   12    12     1     0     0
SMALL
abcg2


@<TRIPOS>ATOM
      1 N01         -6.7500    23.7210    -0.6840 nv         1 XGV      -1.056900
      2 C02         -6.9420    23.6840     0.6580 ca         1 XGV       0.539900
      3 C03         -6.8500    22.4730     1.3750 ca         1 XGV      -0.180000
      4 C04         -7.1060    22.5210     2.7150 ca         1 XGV      -0.082000
      5 C05         -7.4390    23.7620     3.2710 ca         1 XGV       0.222900
      6 N06         -7.5050    24.8590     2.5500 nb         1 XGV      -0.277000
      7 N07         -7.2570    24.8300     1.2570 nb         1 XGV      -0.406000
      8 H011        -6.6060    24.6280    -1.0990 hn         1 XGV       0.478000
      9 H012        -6.2340    22.9720    -1.1140 hn         1 XGV       0.478000
     10 H031        -6.5870    21.5510     0.8720 ha         1 XGV       0.127000
     11 H041        -7.0550    21.6350     3.3330 ha         1 XGV       0.127000
     12 H051        -7.6540    23.8690     4.3260 h4         1 XGV       0.029100
@<TRIPOS>BOND
     1     1     2 1   
     2     1     8 1   
     3     1     9 1   
     4     2     3 ar  
     5     2     7 ar  
     6     3     4 ar  
     7     3    10 1   
     8     4     5 ar  
     9     4    11 1   
    10     5     6 ar  
    11     5    12 1   
    12     6     7 ar  
@<TRIPOS>SUBSTRUCTURE
     1 XGV         1 TEMP              0 ****  ****    0 ROOT
