@<TRIPOS>MOLECULE
XGV
   12    12     1     0     0
SMALL
No Charge or Current Charge


@<TRIPOS>ATOM
      1 N01         -6.7300    23.7320    -0.7000 nv         1 XGV      -1.056900
      2 C02         -6.9530    23.6590     0.6320 ca         1 XGV       0.539900
      3 C03         -6.8560    22.4610     1.3560 ca         1 XGV      -0.180000
      4 C04         -7.1080    22.5150     2.7430 ca         1 XGV      -0.082000
      5 C05         -7.4390    23.7640     3.3050 ca         1 XGV       0.222900
      6 N06         -7.5160    24.8860     2.5450 nb         1 XGV      -0.277000
      7 N07         -7.2730    24.8290     1.2150 nb         1 XGV      -0.406000
      8 H011        -6.5970    24.6600    -1.0900 hn         1 XGV       0.478000
      9 H012        -6.2190    22.9750    -1.1450 hn         1 XGV       0.478000
     10 H031        -6.5970    21.5280     0.8660 ha         1 XGV       0.127000
     11 H041        -7.0510    21.6250     3.3640 ha         1 XGV       0.127000
     12 H051        -7.6450    23.8710     4.3690 h4         1 XGV       0.029100
@<TRIPOS>BOND
     1     1     2 1   
     2     1     8 1   
     3     1     9 1   
     4     2     3 ar  
     5     2     7 ar  
     6     3     4 ar  
     7     3    10 1   
     8     4     5 ar  
     9     4    11 1   
    10     5     6 ar  
    11     5    12 1   
    12     6     7 ar  
@<TRIPOS>SUBSTRUCTURE
     1 XGV         1 TEMP              0 ****  ****    0 ROOT
