@<TRIPOS>MOLECULE
XGY
   18    18     1     0     0
SMALL
No Charge or Current Charge


@<TRIPOS>ATOM
      1 C01        -17.6790    22.4210    -7.4670 c3         1 XGY       0.159100
      2 N02        -16.6940    22.9970    -8.4040 n3         1 XGY      -0.743600
      3 C03        -16.0810    24.2570    -7.9810 c5         1 XGY       0.382000
      4 N04        -15.1740    24.4620    -9.1120 n7         1 XGY      -0.863400
      5 C05        -14.5500    23.1960    -9.3480 c5         1 XGY       0.391700
      6 N06        -14.6630    23.3530   -10.7740 n8         1 XGY      -1.024200
      7 C07        -15.5120    22.1500    -8.6890 c5         1 XGY       0.100800
      8 H013       -18.0810    21.4780    -7.8600 h1         1 XGY       0.033367
      9 H011       -17.2200    22.2180    -6.4900 h1         1 XGY       0.033367
     10 H012       -18.5190    23.1130    -7.3150 h1         1 XGY       0.033367
     11 H031       -16.8220    25.0650    -7.9030 h2         1 XGY       0.041700
     12 H032       -15.5280    24.1390    -7.0380 h2         1 XGY       0.041700
     13 H041       -15.7850    24.5510    -9.9190 hn         1 XGY       0.435000
     14 H051       -13.5310    23.1420    -8.9300 h2         1 XGY       0.078700
     15 H3         -13.7570    23.1310   -11.1960 hn         1 XGY       0.405000
     16 H061       -15.3040    22.6310   -11.1170 hn         1 XGY       0.405000
     17 H071       -15.7420    21.3020    -9.3480 h1         1 XGY       0.045700
     18 H072       -15.0680    21.7560    -7.7630 h1         1 XGY       0.045700
@<TRIPOS>BOND
     1     1     2 1   
     2     1     8 1   
     3     1     9 1   
     4     1    10 1   
     5     2     3 1   
     6     2     7 1   
     7     3     4 1   
     8     3    11 1   
     9     3    12 1   
    10     4     5 1   
    11     4    13 1   
    12     5     6 1   
    13     5     7 1   
    14     5    14 1   
    15     6    15 1   
    16     6    16 1   
    17     7    17 1   
    18     7    18 1   
@<TRIPOS>SUBSTRUCTURE
     1 XGY         1 TEMP              0 ****  ****    0 ROOT
