@<TRIPOS>MOLECULE
XGY
   18    18     1     0     0
SMALL
bcc


@<TRIPOS>ATOM
      1 C01        -17.5960    22.3250    -7.5610 c3         1 XGY       0.159100
      2 N02        -16.6460    22.9310    -8.4590 n3         1 XGY      -0.743600
      3 C03        -16.1920    24.2470    -8.0440 c5         1 XGY       0.382000
      4 N04        -14.9730    24.4870    -8.7960 n7         1 XGY      -0.808200
      5 C05        -14.5470    23.2140    -9.3820 c5         1 XGY       0.391700
      6 N06        -14.7450    23.2280   -10.8190 n8         1 XGY      -0.913800
      7 C07        -15.4040    22.2030    -8.6140 c5         1 XGY       0.100800
      8 H013       -17.8900    21.3440    -7.9350 h1         1 XGY       0.033367
      9 H011       -17.2030    22.1930    -6.5410 h1         1 XGY       0.033367
     10 H012       -18.4960    22.9380    -7.4960 h1         1 XGY       0.033367
     11 H031       -16.9490    25.0120    -8.2380 h2         1 XGY       0.041700
     12 H032       -15.9820    24.2630    -6.9590 h2         1 XGY       0.041700
     13 H041       -15.1160    25.1620    -9.5340 hn         1 XGY       0.379800
     14 H051       -13.4830    23.0320    -9.2060 h2         1 XGY       0.078700
     15 H3         -14.2770    22.4330   -11.2380 hn         1 XGY       0.349800
     16 H061       -15.7320    23.1240   -11.0270 hn         1 XGY       0.349800
     17 H071       -15.5400    21.2700    -9.1630 h1         1 XGY       0.045700
     18 H072       -14.9400    21.9580    -7.6410 h1         1 XGY       0.045700
@<TRIPOS>BOND
     1     1     2 1   
     2     1     8 1   
     3     1     9 1   
     4     1    10 1   
     5     2     3 1   
     6     2     7 1   
     7     3     4 1   
     8     3    11 1   
     9     3    12 1   
    10     4     5 1   
    11     4    13 1   
    12     5     6 1   
    13     5     7 1   
    14     5    14 1   
    15     6    15 1   
    16     6    16 1   
    17     7    17 1   
    18     7    18 1   
@<TRIPOS>SUBSTRUCTURE
     1 XGY         1 TEMP              0 ****  ****    0 ROOT
