@<TRIPOS>MOLECULE
XGZ
   62    63     1     0     0
SMALL
abcg2


@<TRIPOS>ATOM
      1 C02        -16.6690     7.5100    -2.2330 c6         1 XGZ       0.155300
      2 C03        -15.5460     6.9500    -3.1080 c6         1 XGZ       0.125300
      3 C05        -14.8450     8.0580    -3.8770 c6         1 XGZ       0.137300
      4 C07        -15.8320     8.8520    -4.7180 c6         1 XGZ       0.125300
      5 C09        -16.9760     9.4200    -3.8800 c6         1 XGZ       0.155300
      6 C11        -17.6530     8.3080    -3.0750 c6         1 XGZ       0.182300
      7 C13        -19.9530     8.9050    -2.7080 c6         1 XGZ       0.360300
      8 C15        -20.8130     7.3240    -1.1260 c6         1 XGZ       0.166300
      9 C16        -21.4930     5.9760    -1.0980 c3         1 XGZ       0.168600
     10 C18        -21.6220     8.4010    -0.4040 c6         1 XGZ       0.151300
     11 C20        -20.9340     9.7510    -0.5430 c6         1 XGZ       0.125300
     12 C22        -20.6660    10.0720    -2.0120 c6         1 XGZ       0.062700
     13 C25        -19.0740    13.3690    -3.0570 c3         1 XGZ       0.042700
     14 C28        -18.3190    14.5200    -6.5900 c3         1 XGZ      -0.169100
     15 C30        -19.4120    14.3260    -1.9120 c3         1 XGZ       0.068600
     16 N23        -19.8940    11.2920    -2.1280 ns         1 XGZ      -0.492900
     17 N26        -19.0180    14.0750    -4.3130 ns         1 XGZ      -0.484900
     18 O01        -16.1340     8.3500    -1.2130 oh         1 XGZ      -0.731000
     19 O04        -14.5530     6.3180    -2.2950 oh         1 XGZ      -0.723500
     20 O06        -13.8650     7.5300    -4.7720 oh         1 XGZ      -0.733000
     21 O08        -15.1780     9.9430    -5.3630 oh         1 XGZ      -0.723500
     22 O10        -17.9550    10.0200    -4.7130 oh         1 XGZ      -0.731000
     23 O12        -18.6420     8.8560    -2.2050 os         1 XGZ      -0.479000
     24 O14        -20.6490     7.6960    -2.5010 os         1 XGZ      -0.461000
     25 O17        -20.5870     4.9970    -1.6090 oh         1 XGZ      -0.725000
     26 O19        -21.7390     8.0380     0.9670 oh         1 XGZ      -0.723000
     27 O21        -21.7940    10.7170     0.0570 oh         1 XGZ      -0.669000
     28 O29        -17.5220    12.6820    -5.2810 o          1 XGZ      -0.635100
     29 S31        -21.1050    15.0250    -2.0990 sh         1 XGZ      -0.426800
     30 H1         -17.2110     6.6730    -1.7750 h1         1 XGZ       0.057200
     31 H2         -15.9660     6.2300    -3.8190 h1         1 XGZ       0.056700
     32 H3         -14.3640     8.7350    -3.1630 h1         1 XGZ       0.064700
     33 H4         -16.2620     8.1830    -5.4750 h1         1 XGZ       0.056700
     34 H5         -16.5720    10.1610    -3.1830 h1         1 XGZ       0.057200
     35 H6         -18.1300     7.6120    -3.7730 h1         1 XGZ       0.066700
     36 H7         -19.9440     9.0560    -3.7840 h2         1 XGZ       0.113700
     37 H8         -19.8300     7.2370    -0.6510 h1         1 XGZ       0.073700
     38 H9         -22.4040     6.0200    -1.7070 h1         1 XGZ       0.041200
     39 H10        -21.7730     5.7470    -0.0680 h1         1 XGZ       0.041200
     40 H11        -22.6160     8.4680    -0.8660 h1         1 XGZ       0.058700
     41 H12        -19.9840     9.7090     0.0010 h1         1 XGZ       0.058700
     42 H13        -21.6180    10.2310    -2.5170 h1         1 XGZ       0.109700
     43 H14        -18.0830    12.9590    -2.8580 h1         1 XGZ       0.088700
     44 H15        -17.3220    14.9080    -6.8000 hc         1 XGZ       0.066033
     45 H16        -18.6130    13.8840    -7.4260 hc         1 XGZ       0.066033
     46 H17        -19.0180    15.3500    -6.5020 hc         1 XGZ       0.066033
     47 H18        -19.3440    13.7960    -0.9660 h1         1 XGZ       0.072200
     48 H19        -18.7010    15.1490    -1.9140 h1         1 XGZ       0.072200
     49 H20        -19.0320    11.3280    -1.6050 hn         1 XGZ       0.318500
     50 H21        -19.6430    14.8570    -4.4400 hn         1 XGZ       0.336500
     51 H22        -15.3770     7.8780    -0.8380 ho         1 XGZ       0.535000
     52 H23        -14.8680     5.4410    -2.0430 ho         1 XGZ       0.515500
     53 H24        -13.2060     7.0620    -4.2430 ho         1 XGZ       0.521000
     54 H25        -14.4190     9.5810    -5.8390 ho         1 XGZ       0.515500
     55 H26        -17.7400    10.9620    -4.8530 ho         1 XGZ       0.535000
     56 H27        -21.0140     4.1340    -1.5520 ho         1 XGZ       0.502000
     57 H28        -22.1190     8.7960     1.4310 ho         1 XGZ       0.523000
     58 H29        -21.3070    11.5440     0.1650 ho         1 XGZ       0.455000
     59 H30        -20.8720    16.1520    -1.4090 hs         1 XGZ       0.208800
     60 C24        -20.0740    12.1960    -3.1090 c          1 XGZ       0.584100
     61 C27        -18.2560    13.6770    -5.3440 c          1 XGZ       0.612100
     62 O32        -20.9700    12.1430    -3.9430 o          1 XGZ      -0.569100
@<TRIPOS>BOND
     1     1     2 1   
     2     1     6 1   
     3     1    18 1   
     4     1    30 1   
     5     2     3 1   
     6     2    19 1   
     7     2    31 1   
     8     3     4 1   
     9     3    20 1   
    10     3    32 1   
    11     4     5 1   
    12     4    21 1   
    13     4    33 1   
    14     5     6 1   
    15     5    22 1   
    16     5    34 1   
    17     6    23 1   
    18     6    35 1   
    19     7    12 1   
    20     7    23 1   
    21     7    24 1   
    22     7    36 1   
    23     8     9 1   
    24     8    10 1   
    25     8    24 1   
    26     8    37 1   
    27     9    25 1   
    28     9    38 1   
    29     9    39 1   
    30    10    11 1   
    31    10    26 1   
    32    10    40 1   
    33    11    12 1   
    34    11    27 1   
    35    11    41 1   
    36    12    16 1   
    37    12    42 1   
    38    13    15 1   
    39    13    17 1   
    40    13    43 1   
    41    13    60 1   
    42    14    44 1   
    43    14    45 1   
    44    14    46 1   
    45    14    61 1   
    46    15    29 1   
    47    15    47 1   
    48    15    48 1   
    49    16    49 1   
    50    16    60 1   
    51    17    50 1   
    52    17    61 1   
    53    18    51 1   
    54    19    52 1   
    55    20    53 1   
    56    21    54 1   
    57    22    55 1   
    58    25    56 1   
    59    26    57 1   
    60    27    58 1   
    61    28    61 2   
    62    29    59 1   
    63    60    62 2   
@<TRIPOS>SUBSTRUCTURE
     1 XGZ         1 TEMP              0 ****  ****    0 ROOT
