@<TRIPOS>MOLECULE
XGZ
   62    63     1     0     0
SMALL
No Charge or Current Charge


@<TRIPOS>ATOM
      1 C02        -16.5620     7.5950    -2.1590 c6         1 XGZ       0.155300
      2 C03        -15.4740     6.9750    -3.0880 c6         1 XGZ       0.125300
      3 C05        -14.8400     8.0680    -3.9970 c6         1 XGZ       0.137300
      4 C07        -15.9260     8.7630    -4.8650 c6         1 XGZ       0.125300
      5 C09        -17.0210     9.4190    -3.9590 c6         1 XGZ       0.155300
      6 C11        -17.6570     8.3460    -2.9940 c6         1 XGZ       0.182300
      7 C13        -19.9940     9.0250    -2.6240 c6         1 XGZ       0.360300
      8 C15        -20.8070     7.2770    -1.1190 c6         1 XGZ       0.166300
      9 C16        -21.4400     5.8470    -1.1560 c3         1 XGZ       0.168600
     10 C18        -21.6790     8.2950    -0.3250 c6         1 XGZ       0.151300
     11 C20        -21.0180     9.7020    -0.3910 c6         1 XGZ       0.125300
     12 C22        -20.7970    10.1330    -1.8700 c6         1 XGZ       0.062700
     13 C25        -19.0860    13.4330    -3.0170 c3         1 XGZ       0.042700
     14 C28        -18.1640    14.4130    -6.6380 c3         1 XGZ      -0.169100
     15 C30        -19.4280    14.4960    -1.9460 c3         1 XGZ       0.068600
     16 N23        -20.0870    11.4330    -1.9510 ns         1 XGZ      -0.492900
     17 N26        -18.9550    14.0600    -4.3530 ns         1 XGZ      -0.484900
     18 O01        -15.9240     8.4400    -1.1770 oh         1 XGZ      -0.731000
     19 O04        -14.4420     6.3420    -2.2960 oh         1 XGZ      -0.723500
     20 O06        -13.8240     7.4870    -4.8350 oh         1 XGZ      -0.733000
     21 O08        -15.2770     9.7280    -5.7150 oh         1 XGZ      -0.723500
     22 O10        -18.0170    10.0690    -4.7760 oh         1 XGZ      -0.731000
     23 O12        -18.6500     8.9280    -2.1030 os         1 XGZ      -0.479000
     24 O14        -20.6410     7.7410    -2.4870 os         1 XGZ      -0.461000
     25 O17        -20.6720     4.8990    -1.9300 oh         1 XGZ      -0.725000
     26 O19        -21.8510     7.9160     1.0530 oh         1 XGZ      -0.723000
     27 O21        -21.8360    10.6580     0.3120 oh         1 XGZ      -0.669000
     28 O29        -17.4190    12.6180    -5.2100 o          1 XGZ      -0.635100
     29 S31        -20.9090    15.5400    -2.3530 sh         1 XGZ      -0.426800
     30 H1         -17.0680     6.7650    -1.6440 h1         1 XGZ       0.057200
     31 H2         -15.9610     6.2300    -3.7380 h1         1 XGZ       0.056700
     32 H3         -14.3850     8.8310    -3.3460 h1         1 XGZ       0.064700
     33 H4         -16.4120     7.9930    -5.4840 h1         1 XGZ       0.056700
     34 H5         -16.5270    10.1710    -3.3250 h1         1 XGZ       0.057200
     35 H6         -18.1570     7.5860    -3.6140 h1         1 XGZ       0.066700
     36 H7         -19.9730     9.3010    -3.6880 h2         1 XGZ       0.113700
     37 H8         -19.8180     7.1950    -0.6430 h1         1 XGZ       0.073700
     38 H9         -22.4550     5.9350    -1.5670 h1         1 XGZ       0.041200
     39 H10        -21.5400     5.4890    -0.1220 h1         1 XGZ       0.041200
     40 H11        -22.6620     8.3550    -0.8170 h1         1 XGZ       0.058700
     41 H12        -20.0300     9.6370     0.0930 h1         1 XGZ       0.058700
     42 H13        -21.7780    10.2320    -2.3590 h1         1 XGZ       0.109700
     43 H14        -18.1240    12.9790    -2.7450 h1         1 XGZ       0.088700
     44 H15        -17.9410    15.4610    -6.4080 hc         1 XGZ       0.066033
     45 H16        -17.4910    14.0140    -7.4040 hc         1 XGZ       0.066033
     46 H17        -19.1980    14.4670    -6.9950 hc         1 XGZ       0.066033
     47 H18        -19.5950    14.0100    -0.9760 h1         1 XGZ       0.072200
     48 H19        -18.5670    15.1690    -1.8330 h1         1 XGZ       0.072200
     49 H20        -19.3580    11.6130    -1.2690 hn         1 XGZ       0.318500
     50 H21        -19.5310    14.8670    -4.5660 hn         1 XGZ       0.336500
     51 H22        -15.0730     7.9790    -0.9760 ho         1 XGZ       0.535000
     52 H23        -14.7590     5.4360    -2.0620 ho         1 XGZ       0.515500
     53 H24        -13.3570     6.8450    -4.2460 ho         1 XGZ       0.521000
     54 H25        -14.4180     9.2960    -5.9460 ho         1 XGZ       0.515500
     55 H26        -17.6420    10.9670    -5.0110 ho         1 XGZ       0.535000
     56 H27        -21.1890     4.0600    -1.9510 ho         1 XGZ       0.502000
     57 H28        -22.1050     8.7570     1.5070 ho         1 XGZ       0.523000
     58 H29        -21.5470    11.5510     0.0180 ho         1 XGZ       0.455000
     59 H30        -20.8570    16.3180    -1.2430 hs         1 XGZ       0.208800
     60 C24        -20.1300    12.2810    -3.0400 c          1 XGZ       0.584100
     61 C27        -18.1270    13.6060    -5.3500 c          1 XGZ       0.612100
     62 O32        -20.9220    12.0990    -3.9550 o          1 XGZ      -0.569100
@<TRIPOS>BOND
     1     1     2 1   
     2     1     6 1   
     3     1    18 1   
     4     1    30 1   
     5     2     3 1   
     6     2    19 1   
     7     2    31 1   
     8     3     4 1   
     9     3    20 1   
    10     3    32 1   
    11     4     5 1   
    12     4    21 1   
    13     4    33 1   
    14     5     6 1   
    15     5    22 1   
    16     5    34 1   
    17     6    23 1   
    18     6    35 1   
    19     7    12 1   
    20     7    23 1   
    21     7    24 1   
    22     7    36 1   
    23     8     9 1   
    24     8    10 1   
    25     8    24 1   
    26     8    37 1   
    27     9    25 1   
    28     9    38 1   
    29     9    39 1   
    30    10    11 1   
    31    10    26 1   
    32    10    40 1   
    33    11    12 1   
    34    11    27 1   
    35    11    41 1   
    36    12    16 1   
    37    12    42 1   
    38    13    15 1   
    39    13    17 1   
    40    13    43 1   
    41    13    60 1   
    42    14    44 1   
    43    14    45 1   
    44    14    46 1   
    45    14    61 1   
    46    15    29 1   
    47    15    47 1   
    48    15    48 1   
    49    16    49 1   
    50    16    60 1   
    51    17    50 1   
    52    17    61 1   
    53    18    51 1   
    54    19    52 1   
    55    20    53 1   
    56    21    54 1   
    57    22    55 1   
    58    25    56 1   
    59    26    57 1   
    60    27    58 1   
    61    28    61 2   
    62    29    59 1   
    63    60    62 2   
@<TRIPOS>SUBSTRUCTURE
     1 XGZ         1 TEMP              0 ****  ****    0 ROOT
