@<TRIPOS>MOLECULE
XH1
   17    16     1     0     0
SMALL
No Charge or Current Charge


@<TRIPOS>ATOM
      1 C01         -8.8590    41.9030   -24.6980 c3         1 XH1      -0.109600
      2 C02         -7.7850    40.8260   -24.4580 c3         1 XH1       0.121700
      3 C03         -8.3250    39.6400   -23.6340 c3         1 XH1      -0.109600
      4 N04         -7.2390    40.3640   -25.7340 ns         1 XH1      -0.520900
      5 C05         -5.9700    39.8930   -25.9100 c          1 XH1       0.638100
      6 N06         -5.7130    39.5190   -27.1700 nt         1 XH1      -0.599000
      7 O07         -5.1340    39.8120   -25.0300 o          1 XH1      -0.642100
      8 H011        -8.4380    42.7480   -25.2580 hc         1 XH1       0.040367
      9 H012        -9.7020    41.4960   -25.2690 hc         1 XH1       0.040367
     10 H013        -9.2410    42.2860   -23.7440 hc         1 XH1       0.040367
     11 H021        -6.9710    41.2930   -23.8850 h1         1 XH1       0.081700
     12 H033        -7.5310    38.9080   -23.4420 hc         1 XH1       0.040367
     13 H032        -8.7070    39.9850   -22.6660 hc         1 XH1       0.040367
     14 H031        -9.1390    39.1330   -24.1660 hc         1 XH1       0.040367
     15 H041        -7.8390    40.3830   -26.5470 hn         1 XH1       0.299500
     16 H062        -4.7990    39.1580   -27.3970 hn         1 XH1       0.299000
     17 H061        -6.4230    39.5970   -27.8810 hn         1 XH1       0.299000
@<TRIPOS>BOND
     1     1     2 1   
     2     1     8 1   
     3     1     9 1   
     4     1    10 1   
     5     2     3 1   
     6     2     4 1   
     7     2    11 1   
     8     3    12 1   
     9     3    13 1   
    10     3    14 1   
    11     4     5 1   
    12     4    15 1   
    13     5     6 1   
    14     5     7 2   
    15     6    16 1   
    16     6    17 1   
@<TRIPOS>SUBSTRUCTURE
     1 XH1         1 TEMP              0 ****  ****    0 ROOT
