@<TRIPOS>MOLECULE
XH1
   17    16     1     0     0
SMALL
abcg2


@<TRIPOS>ATOM
      1 C01         -8.8440    41.9120   -24.6520 c3         1 XH1      -0.109600
      2 C02         -7.7720    40.8470   -24.4660 c3         1 XH1       0.121700
      3 C03         -8.3130    39.6380   -23.7070 c3         1 XH1      -0.109600
      4 N04         -7.2370    40.4750   -25.7630 ns         1 XH1      -0.520900
      5 C05         -5.9790    39.9930   -25.9290 c          1 XH1       0.638100
      6 N06         -5.6830    39.5720   -27.1950 nt         1 XH1      -0.599000
      7 O07         -5.1400    39.9910   -25.0330 o          1 XH1      -0.642100
      8 H011        -8.4430    42.7950   -25.1500 hc         1 XH1       0.040367
      9 H012        -9.6770    41.5340   -25.2500 hc         1 XH1       0.040367
     10 H013        -9.2450    42.2200   -23.6870 hc         1 XH1       0.040367
     11 H021        -6.9530    41.2800   -23.8910 h1         1 XH1       0.081700
     12 H033        -7.5370    38.8870   -23.5600 hc         1 XH1       0.040367
     13 H032        -8.6850    39.9320   -22.7250 hc         1 XH1       0.040367
     14 H031        -9.1370    39.1750   -24.2530 hc         1 XH1       0.040367
     15 H041        -7.9090    40.3450   -26.5040 hn         1 XH1       0.299500
     16 H062        -4.8410    39.0300   -27.2940 hn         1 XH1       0.299000
     17 H061        -6.4200    39.3180   -27.8310 hn         1 XH1       0.299000
@<TRIPOS>BOND
     1     1     2 1   
     2     1     8 1   
     3     1     9 1   
     4     1    10 1   
     5     2     3 1   
     6     2     4 1   
     7     2    11 1   
     8     3    12 1   
     9     3    13 1   
    10     3    14 1   
    11     4     5 1   
    12     4    15 1   
    13     5     6 1   
    14     5     7 2   
    15     6    16 1   
    16     6    17 1   
@<TRIPOS>SUBSTRUCTURE
     1 XH1         1 TEMP              0 ****  ****    0 ROOT
