@<TRIPOS>MOLECULE
XH2
   28    28     1     0     0
SMALL
No Charge or Current Charge


@<TRIPOS>ATOM
      1 OAF          2.2300     1.8490     0.0020 oh         1 XH2      -0.685000
      2 CAC          0.9720     1.3250     0.4530 c6         1 XH2       0.184500
      3 CAB         -0.1910     1.9600    -0.3710 c6         1 XH2       0.170300
      4 OAG         -0.2580     3.3760    -0.1360 oh         1 XH2      -0.672000
      5 CAA         -1.5290     1.2820    -0.0070 c6         1 XH2      -0.066400
      6 CAI         -1.5070    -0.2350    -0.3550 c6         1 XH2       0.048200
      7 CAH         -2.7490    -0.9460     0.3370 c          1 XH2       0.702000
      8 OAO         -2.5690    -1.4760     1.4250 o          1 XH2      -0.705000
      9 OAN         -3.6210    -1.3450    -0.4290 o          1 XH2      -0.705000
     10 OAM         -1.6230    -0.3750    -1.7930 oh         1 XH2      -0.701000
     11 CAE         -0.1740    -0.8800     0.0510 c2         1 XH2      -0.104200
     12 CAD          0.9470    -0.2090     0.3940 c2         1 XH2      -0.211400
     13 CAL          2.2060    -0.9420     0.8510 c3         1 XH2      -0.021200
     14 CAK          3.1680    -1.2800    -0.3110 c3         1 XH2       0.152600
     15 OAJ          4.3210    -1.9680     0.1910 oh         1 XH2      -0.677000
     16 HAF          2.9170     1.4250     0.5580 ho         1 XH2       0.432000
     17 HAC          0.8230     1.6070     1.5070 h1         1 XH2       0.037700
     18 HAB          0.0070     1.7750    -1.4380 h1         1 XH2       0.051700
     19 HAG          0.6790     3.6750    -0.1530 ho         1 XH2       0.434000
     20 HAA1        -1.7160     1.4100     1.0690 hc         1 XH2       0.060200
     21 HAA2        -2.3620     1.7770    -0.5250 hc         1 XH2       0.060200
     22 HAM         -2.4970    -0.8280    -1.9050 ho         1 XH2       0.479000
     23 HAE         -0.1770    -1.9710     0.0560 ha         1 XH2       0.170000
     24 HAL1         2.7340    -0.3670     1.6230 hc         1 XH2       0.040200
     25 HAL2         1.9210    -1.8860     1.3310 hc         1 XH2       0.040200
     26 HAK1         2.6390    -1.9060    -1.0420 h1         1 XH2       0.028200
     27 HAK2         3.4720    -0.3570    -0.8220 h1         1 XH2       0.028200
     28 HAJ          4.8890    -2.1760    -0.5850 ho         1 XH2       0.429000
@<TRIPOS>BOND
     1     1     2 1   
     2     1    16 1   
     3     2     3 1   
     4     2    12 1   
     5     2    17 1   
     6     3     4 1   
     7     3     5 1   
     8     3    18 1   
     9     4    19 1   
    10     5     6 1   
    11     5    20 1   
    12     5    21 1   
    13     6     7 1   
    14     6    10 1   
    15     6    11 1   
    16     7     8 1   
    17     7     9 1   
    18    10    22 1   
    19    11    12 2   
    20    11    23 1   
    21    12    13 1   
    22    13    14 1   
    23    13    24 1   
    24    13    25 1   
    25    14    15 1   
    26    14    26 1   
    27    14    27 1   
    28    15    28 1   
@<TRIPOS>SUBSTRUCTURE
     1 XH2         1 TEMP              0 ****  ****    0 ROOT
