@<TRIPOS>MOLECULE
XH2
   28    28     1     0     0
SMALL
abcg2


@<TRIPOS>ATOM
      1 OAF          2.2010     1.8130     0.0980 oh         1 XH2      -0.685000
      2 CAC          0.9630     1.2680     0.5210 c6         1 XH2       0.184500
      3 CAB         -0.1260     1.8840    -0.3450 c6         1 XH2       0.170300
      4 OAG         -0.2360     3.2740    -0.1320 oh         1 XH2      -0.672000
      5 CAA         -1.4510     1.2310    -0.0080 c6         1 XH2      -0.066400
      6 CAI         -1.4420    -0.2530    -0.3840 c6         1 XH2       0.048200
      7 CAH         -2.6500    -0.9630     0.2920 c          1 XH2       0.702000
      8 OAO         -2.6690    -1.0190     1.5280 o          1 XH2      -0.705000
      9 OAN         -3.5020    -1.4130    -0.5080 o          1 XH2      -0.705000
     10 OAM         -1.5650    -0.4190    -1.7820 oh         1 XH2      -0.701000
     11 CAE         -0.1600    -0.8980     0.0640 c2         1 XH2      -0.104200
     12 CAD          0.9360    -0.2430     0.4450 c2         1 XH2      -0.211400
     13 CAL          2.1860    -0.9900     0.8340 c3         1 XH2      -0.021200
     14 CAK          3.0820    -1.2620    -0.3660 c3         1 XH2       0.152600
     15 OAJ          4.2270    -1.9610     0.0780 oh         1 XH2      -0.677000
     16 HAF          2.8130     1.8150     0.8390 ho         1 XH2       0.432000
     17 HAC          0.7680     1.5600     1.5650 h1         1 XH2       0.037700
     18 HAB          0.1200     1.6750    -1.3980 h1         1 XH2       0.051700
     19 HAG          0.6210     3.6680    -0.3280 ho         1 XH2       0.434000
     20 HAA1        -1.6400     1.3360     1.0640 hc         1 XH2       0.060200
     21 HAA2        -2.2680     1.7330    -0.5330 hc         1 XH2       0.060200
     22 HAM         -2.4340    -0.8650    -1.8510 ho         1 XH2       0.479000
     23 HAE         -0.1340    -1.9850     0.0360 ha         1 XH2       0.170000
     24 HAL1         2.7510    -0.4380     1.5920 hc         1 XH2       0.040200
     25 HAL2         1.9090    -1.9440     1.2880 hc         1 XH2       0.040200
     26 HAK1         2.5140    -1.8480    -1.1000 h1         1 XH2       0.028200
     27 HAK2         3.3500    -0.3160    -0.8480 h1         1 XH2       0.028200
     28 HAJ          4.7880    -2.1280    -0.6850 ho         1 XH2       0.429000
@<TRIPOS>BOND
     1     1     2 1   
     2     1    16 1   
     3     2     3 1   
     4     2    12 1   
     5     2    17 1   
     6     3     4 1   
     7     3     5 1   
     8     3    18 1   
     9     4    19 1   
    10     5     6 1   
    11     5    20 1   
    12     5    21 1   
    13     6     7 1   
    14     6    10 1   
    15     6    11 1   
    16     7     8 1   
    17     7     9 1   
    18    10    22 1   
    19    11    12 2   
    20    11    23 1   
    21    12    13 1   
    22    13    14 1   
    23    13    24 1   
    24    13    25 1   
    25    14    15 1   
    26    14    26 1   
    27    14    27 1   
    28    15    28 1   
@<TRIPOS>SUBSTRUCTURE
     1 XH2         1 TEMP              0 ****  ****    0 ROOT
