@<TRIPOS>MOLECULE
XH4
   17    17     1     0     0
SMALL
bcc


@<TRIPOS>ATOM
      1 O01        -28.2550    17.8320   -18.5780 oh         1 XH4      -0.594800
      2 C02        -28.4090    17.5310   -17.2110 c3         1 XH4       0.135400
      3 C03        -27.3460    18.2880   -16.4410 c5         1 XH4       0.133500
      4 C04        -25.8900    17.8840   -16.7840 c5         1 XH4      -0.097400
      5 C05        -25.2440    17.7190   -15.4020 c5         1 XH4       0.098800
      6 N06        -26.1910    18.4150   -14.5300 n7         1 XH4      -0.568000
      7 N07        -27.4850    18.0620   -15.0050 n7         1 XH4      -0.522000
      8 H011       -28.9170    17.3390   -19.0710 ho         1 XH4       0.406000
      9 H021       -29.4010    17.8210   -16.8410 h1         1 XH4       0.023200
     10 H022       -28.2940    16.4540   -17.0190 h1         1 XH4       0.023200
     11 H031       -27.4770    19.3590   -16.6220 h1         1 XH4       0.096700
     12 H042       -25.8490    16.9540   -17.3520 hc         1 XH4       0.058200
     13 H041       -25.3960    18.6510   -17.3790 hc         1 XH4       0.058200
     14 H052       -25.1450    16.6550   -15.1510 h1         1 XH4       0.043200
     15 H051       -24.2530    18.1710   -15.3330 h1         1 XH4       0.043200
     16 H061       -26.1110    18.1250   -13.5630 hn         1 XH4       0.360800
     17 H071       -27.6180    17.0550   -14.8740 hn         1 XH4       0.303800
@<TRIPOS>BOND
     1     1     2 1   
     2     1     8 1   
     3     2     3 1   
     4     2     9 1   
     5     2    10 1   
     6     3     4 1   
     7     3     7 1   
     8     3    11 1   
     9     4     5 1   
    10     4    12 1   
    11     4    13 1   
    12     5     6 1   
    13     5    14 1   
    14     5    15 1   
    15     6     7 1   
    16     6    16 1   
    17     7    17 1   
@<TRIPOS>SUBSTRUCTURE
     1 XH4         1 TEMP              0 ****  ****    0 ROOT
