@<TRIPOS>MOLECULE
XH4
   17    17     1     0     0
SMALL
No Charge or Current Charge


@<TRIPOS>ATOM
      1 O01        -28.3110    17.9230   -18.6760 oh         1 XH4      -0.657000
      2 C02        -28.4600    17.5670   -17.2920 c3         1 XH4       0.158600
      3 C03        -27.3510    18.2260   -16.4210 c5         1 XH4       0.133500
      4 C04        -25.8940    17.7800   -16.7540 c5         1 XH4      -0.097400
      5 C05        -25.2060    17.8060   -15.3580 c5         1 XH4       0.098800
      6 N06        -26.2140    18.4410   -14.4800 n7         1 XH4      -0.623200
      7 N07        -27.4600    17.8970   -14.9780 n7         1 XH4      -0.577200
      8 H011       -29.0400    17.4800   -19.1660 ho         1 XH4       0.445000
      9 H021       -29.4400    17.8970   -16.9240 h1         1 XH4       0.023200
     10 H022       -28.4090    16.4760   -17.1740 h1         1 XH4       0.023200
     11 H031       -27.4400    19.3150   -16.5500 h1         1 XH4       0.096700
     12 H042       -25.8540    16.7760   -17.1910 hc         1 XH4       0.058200
     13 H041       -25.4180    18.4650   -17.4650 hc         1 XH4       0.058200
     14 H052       -24.9920    16.7830   -15.0180 h1         1 XH4       0.043200
     15 H051       -24.2600    18.3660   -15.3620 h1         1 XH4       0.043200
     16 H061       -26.0340    18.2500   -13.4760 hn         1 XH4       0.416000
     17 H071       -27.4970    16.8700   -14.8720 hn         1 XH4       0.359000
@<TRIPOS>BOND
     1     1     2 1   
     2     1     8 1   
     3     2     3 1   
     4     2     9 1   
     5     2    10 1   
     6     3     4 1   
     7     3     7 1   
     8     3    11 1   
     9     4     5 1   
    10     4    12 1   
    11     4    13 1   
    12     5     6 1   
    13     5    14 1   
    14     5    15 1   
    15     6     7 1   
    16     6    16 1   
    17     7    17 1   
@<TRIPOS>SUBSTRUCTURE
     1 XH4         1 TEMP              0 ****  ****    0 ROOT
