@<TRIPOS>MOLECULE
XH5
   17    17     1     0     0
SMALL
No Charge or Current Charge


@<TRIPOS>ATOM
      1 C02         -8.2180   -25.5290   -45.7570 c          1 XH5       0.619000
      2 C05         -9.8440   -26.6220   -44.2870 c          1 XH5       0.577000
      3 C07        -10.5090   -25.2790   -43.9490 c6         1 XH5      -0.156700
      4 C08        -10.0560   -24.8650   -42.5170 c3         1 XH5      -0.081100
      5 C09        -10.1880   -24.1610   -44.9680 c6         1 XH5       0.117000
      6 N01         -8.8960   -24.3500   -45.6350 ns         1 XH5      -0.511900
      7 N04         -8.7750   -26.5910   -45.1290 ns         1 XH5      -0.478500
      8 O03         -7.1920   -25.6210   -46.4020 o          1 XH5      -0.573000
      9 O06        -10.2640   -27.6820   -43.8520 o          1 XH5      -0.527000
     10 H1         -11.5920   -25.4440   -43.8730 hc         1 XH5       0.083700
     11 H2         -10.3040   -25.6400   -41.7800 hc         1 XH5       0.050367
     12 H3          -8.9720   -24.6990   -42.4720 hc         1 XH5       0.050367
     13 H4         -10.5480   -23.9390   -42.1950 hc         1 XH5       0.050367
     14 H5         -10.2140   -23.1710   -44.4890 h1         1 XH5       0.050200
     15 H6          -8.3200   -27.4760   -45.2880 hn         1 XH5       0.342500
     16 H7         -10.9600   -24.1650   -45.7510 h1         1 XH5       0.050200
     17 H8          -8.4770   -23.5560   -46.1050 hn         1 XH5       0.337500
@<TRIPOS>BOND
     1     1     6 1   
     2     1     7 1   
     3     1     8 2   
     4     2     3 1   
     5     2     7 1   
     6     2     9 2   
     7     3     4 1   
     8     3     5 1   
     9     3    10 1   
    10     4    11 1   
    11     4    12 1   
    12     4    13 1   
    13     5     6 1   
    14     5    14 1   
    15     5    16 1   
    16     6    17 1   
    17     7    15 1   
@<TRIPOS>SUBSTRUCTURE
     1 XH5         1 TEMP              0 ****  ****    0 ROOT
