@<TRIPOS>MOLECULE
XH5
   17    17     1     0     0
SMALL
abcg2


@<TRIPOS>ATOM
      1 C02         -8.4010   -25.6040   -46.0990 c          1 XH5       0.619000
      2 C05         -9.5160   -26.5380   -44.0900 c          1 XH5       0.577000
      3 C07        -10.3370   -25.2700   -43.9410 c6         1 XH5      -0.156700
      4 C08        -10.4990   -24.8940   -42.4670 c3         1 XH5      -0.081100
      5 C09         -9.8090   -24.0750   -44.7360 c6         1 XH5       0.117000
      6 N01         -9.0800   -24.4580   -45.9380 ns         1 XH5      -0.511900
      7 N04         -8.5980   -26.5680   -45.1060 ns         1 XH5      -0.478500
      8 O03         -7.6710   -25.8540   -47.0530 o          1 XH5      -0.573000
      9 O06         -9.6640   -27.5090   -43.3660 o          1 XH5      -0.527000
     10 H1         -11.3250   -25.5420   -44.3310 hc         1 XH5       0.083700
     11 H2         -10.9500   -25.7090   -41.9070 hc         1 XH5       0.050367
     12 H3          -9.5300   -24.6550   -42.0240 hc         1 XH5       0.050367
     13 H4         -11.1420   -24.0160   -42.3790 hc         1 XH5       0.050367
     14 H5          -9.1760   -23.4530   -44.0950 h1         1 XH5       0.050200
     15 H6          -8.0970   -27.4360   -45.2460 hn         1 XH5       0.342500
     16 H7         -10.6560   -23.4670   -45.0500 h1         1 XH5       0.050200
     17 H8          -8.8790   -23.7430   -46.6200 hn         1 XH5       0.337500
@<TRIPOS>BOND
     1     1     6 1   
     2     1     7 1   
     3     1     8 2   
     4     2     3 1   
     5     2     7 1   
     6     2     9 2   
     7     3     4 1   
     8     3     5 1   
     9     3    10 1   
    10     4    11 1   
    11     4    12 1   
    12     4    13 1   
    13     5     6 1   
    14     5    14 1   
    15     5    16 1   
    16     6    17 1   
    17     7    15 1   
@<TRIPOS>SUBSTRUCTURE
     1 XH5         1 TEMP              0 ****  ****    0 ROOT
