@<TRIPOS>MOLECULE
XH7
   15    15     1     0     0
SMALL
No Charge or Current Charge


@<TRIPOS>ATOM
      1 O01        -11.9080    12.6310    21.3720 o          1 XH7      -0.727500
      2 C02        -10.7110    12.8210    21.5190 c          1 XH7       0.730000
      3 O03        -10.0630    12.2280    22.3690 o          1 XH7      -0.727500
      4 C04        -10.0100    13.8480    20.5970 c5         1 XH7      -0.204700
      5 C05         -9.2800    14.9530    21.4200 c5         1 XH7      -0.063400
      6 C06         -8.5730    15.7870    20.3190 c5         1 XH7       0.095600
      7 S07         -7.8340    14.5530    19.1310 ss         1 XH7      -0.605000
      8 C08         -8.8520    13.1560    19.8340 c5         1 XH7       0.140600
      9 H041       -10.7440    14.2790    19.9050 hc         1 XH7       0.039700
     10 H051        -9.9760    15.5640    22.0050 hc         1 XH7       0.053200
     11 H052        -8.5520    14.5300    22.1230 hc         1 XH7       0.053200
     12 H062        -9.2940    16.4150    19.7790 h1         1 XH7       0.042700
     13 H061        -7.7950    16.4420    20.7340 h1         1 XH7       0.042700
     14 H082        -9.2160    12.4950    19.0360 h1         1 XH7       0.065200
     15 H081        -8.2200    12.5590    20.5070 h1         1 XH7       0.065200
@<TRIPOS>BOND
     1     1     2 1   
     2     2     3 1   
     3     2     4 1   
     4     4     5 1   
     5     4     8 1   
     6     4     9 1   
     7     5     6 1   
     8     5    10 1   
     9     5    11 1   
    10     6     7 1   
    11     6    12 1   
    12     6    13 1   
    13     7     8 1   
    14     8    14 1   
    15     8    15 1   
@<TRIPOS>SUBSTRUCTURE
     1 XH7         1 TEMP              0 ****  ****    0 ROOT
