@<TRIPOS>MOLECULE
XH8
   42    44     1     0     0
SMALL
No Charge or Current Charge


@<TRIPOS>ATOM
      1 N01          6.0880     2.8480    -0.2070 nv         1 XH8      -1.065900
      2 C02          5.6010     1.6630     0.1670 ca         1 XH8       0.612900
      3 C03          6.2300     0.8210     1.0860 ca         1 XH8      -0.208000
      4 C04          5.6180    -0.4030     1.3860 ca         1 XH8      -0.031000
      5 C05          4.4060    -0.7100     0.7400 ca         1 XH8      -0.126000
      6 C06          3.7510    -1.9260     1.0080 ca         1 XH8      -0.076000
      7 C07          2.5430    -2.2310     0.3620 ca         1 XH8      -0.126000
      8 C08          1.9810    -1.3240    -0.5550 ca         1 XH8      -0.075300
      9 C09          0.6720    -1.6500    -1.2610 c3         1 XH8       0.205100
     10 N10         -0.4510    -0.9550    -0.6070 n7         1 XH8      -0.858400
     11 C11         -1.7760    -1.2210    -1.1920 c3         1 XH8       0.158800
     12 C12         -2.8600    -0.4290    -0.4340 c3         1 XH8      -0.078400
     13 C13         -4.2770    -0.6570    -1.0010 c3         1 XH8      -0.027100
     14 C14         -5.3350     0.1300    -0.2390 ca         1 XH8      -0.129300
     15 C15         -5.5400     1.4970    -0.5020 ca         1 XH8      -0.071000
     16 C16         -6.5270     2.1750     0.2310 ca         1 XH8      -0.162000
     17 C17         -7.2720     1.4740     1.1950 ca         1 XH8       0.331900
     18 N18         -7.0820     0.1600     1.4560 nb         1 XH8      -0.664000
     19 C19         -6.1290    -0.4920     0.7480 ca         1 XH8       0.336900
     20 C20          2.6410    -0.1070    -0.8170 ca         1 XH8      -0.076000
     21 C21          3.8530     0.2200    -0.1810 ca         1 XH8       0.321000
     22 N22          4.4630     1.3990    -0.4580 nb         1 XH8      -0.756000
     23 H011         7.0850     2.9980    -0.0900 hn         1 XH8       0.476000
     24 H012         5.6670     3.2380    -1.0410 hn         1 XH8       0.476000
     25 H03          7.1650     1.1080     1.5550 ha         1 XH8       0.120000
     26 H04          6.0700    -1.0920     2.0980 ha         1 XH8       0.116000
     27 H06          4.1760    -2.6360     1.7150 ha         1 XH8       0.111000
     28 H07          2.0430    -3.1740     0.5750 ha         1 XH8       0.110000
     29 H091         0.7480    -1.3480    -2.3150 h1         1 XH8       0.036200
     30 H092         0.5120    -2.7370    -1.2430 h1         1 XH8       0.036200
     31 H20          2.2070     0.5970    -1.5210 ha         1 XH8       0.141000
     32 H10         -0.4680    -1.2500     0.3760 hn         1 XH8       0.412000
     33 H111        -1.7910    -0.9270    -2.2500 h1         1 XH8       0.027200
     34 H112        -2.0100    -2.2930    -1.1370 h1         1 XH8       0.027200
     35 H121        -2.8480    -0.7170     0.6240 hc         1 XH8       0.052200
     36 H122        -2.6220     0.6410    -0.4800 hc         1 XH8       0.052200
     37 H131        -4.2910    -0.3710    -2.0610 hc         1 XH8       0.047700
     38 H132        -4.5080    -1.7300    -0.9710 hc         1 XH8       0.047700
     39 H15         -4.9500     2.0180    -1.2540 ha         1 XH8       0.119000
     40 H19         -5.9980    -1.5490     0.9810 h4         1 XH8       0.016100
     41 H16         -6.7190     3.2310     0.0600 ha         1 XH8       0.123000
     42 H17         -8.0430     1.9790     1.7760 h4         1 XH8       0.018100
@<TRIPOS>BOND
     1     1     2 1   
     2     1    23 1   
     3     1    24 1   
     4     2     3 ar  
     5     2    22 ar  
     6     3     4 ar  
     7     3    25 1   
     8     4     5 ar  
     9     4    26 1   
    10     5     6 ar  
    11     5    21 ar  
    12     6     7 ar  
    13     6    27 1   
    14     7     8 ar  
    15     7    28 1   
    16     8     9 1   
    17     8    20 ar  
    18     9    10 1   
    19     9    29 1   
    20     9    30 1   
    21    10    11 1   
    22    10    32 1   
    23    11    12 1   
    24    11    33 1   
    25    11    34 1   
    26    12    13 1   
    27    12    35 1   
    28    12    36 1   
    29    13    14 1   
    30    13    37 1   
    31    13    38 1   
    32    14    15 ar  
    33    14    19 ar  
    34    15    16 ar  
    35    15    39 1   
    36    16    17 ar  
    37    16    41 1   
    38    17    18 ar  
    39    17    42 1   
    40    18    19 ar  
    41    19    40 1   
    42    20    21 ar  
    43    20    31 1   
    44    21    22 ar  
@<TRIPOS>SUBSTRUCTURE
     1 XH8         1 TEMP              0 ****  ****    0 ROOT
