@<TRIPOS>MOLECULE
XH8
   42    44     1     0     0
SMALL
abcg2


@<TRIPOS>ATOM
      1 N01          5.6920     3.0670     0.2840 nv         1 XH8      -1.065900
      2 C02          5.2960     1.7700     0.3390 ca         1 XH8       0.612900
      3 C03          6.1630     0.8080     0.9510 ca         1 XH8      -0.208000
      4 C04          5.7520    -0.4810     1.0330 ca         1 XH8      -0.031000
      5 C05          4.4820    -0.8540     0.5210 ca         1 XH8      -0.126000
      6 C06          3.9890    -2.1700     0.5630 ca         1 XH8      -0.076000
      7 C07          2.7520    -2.4660     0.0480 ca         1 XH8      -0.126000
      8 C08          1.9560    -1.4580    -0.5320 ca         1 XH8      -0.075300
      9 C09          0.6000    -1.7970    -1.0930 c3         1 XH8       0.205100
     10 N10         -0.4350    -0.9600    -0.5170 n7         1 XH8      -0.858400
     11 C11         -1.7580    -1.2750    -1.0210 c3         1 XH8       0.158800
     12 C12         -2.8140    -0.3910    -0.3780 c3         1 XH8      -0.078400
     13 C13         -4.2230    -0.7320    -0.8640 c3         1 XH8      -0.027100
     14 C14         -5.2600     0.1620    -0.2500 ca         1 XH8      -0.129300
     15 C15         -5.5440     1.4190    -0.7740 ca         1 XH8      -0.071000
     16 C16         -6.4810     2.2240    -0.1450 ca         1 XH8      -0.162000
     17 C17         -7.1060     1.7440     0.9960 ca         1 XH8       0.331900
     18 N18         -6.8500     0.5470     1.5120 nb         1 XH8      -0.664000
     19 C19         -5.9510    -0.2130     0.8980 ca         1 XH8       0.336900
     20 C20          2.4260    -0.1650    -0.5730 ca         1 XH8      -0.076000
     21 C21          3.6950     0.1710    -0.0580 ca         1 XH8       0.321000
     22 N22          4.1160     1.4570    -0.1410 nb         1 XH8      -0.756000
     23 H011         6.6710     3.2740     0.3830 hn         1 XH8       0.476000
     24 H012         5.1880     3.6770    -0.3380 hn         1 XH8       0.476000
     25 H03          7.1260     1.1180     1.3350 ha         1 XH8       0.120000
     26 H04          6.3880    -1.2320     1.4860 ha         1 XH8       0.116000
     27 H06          4.5960    -2.9480     1.0100 ha         1 XH8       0.111000
     28 H07          2.3800    -3.4830     0.0860 ha         1 XH8       0.110000
     29 H091         0.6020    -1.6310    -2.1750 h1         1 XH8       0.036200
     30 H092         0.4110    -2.8730    -0.9530 h1         1 XH8       0.036200
     31 H20          1.8220     0.6230    -1.0080 ha         1 XH8       0.141000
     32 H10         -0.4280    -1.0850     0.4900 hn         1 XH8       0.412000
     33 H111        -1.7590    -1.1110    -2.1040 h1         1 XH8       0.027200
     34 H112        -2.0250    -2.3350    -0.8750 h1         1 XH8       0.027200
     35 H121        -2.7720    -0.5020     0.7110 hc         1 XH8       0.052200
     36 H122        -2.5920     0.6570    -0.5960 hc         1 XH8       0.052200
     37 H131        -4.2620    -0.6410    -1.9530 hc         1 XH8       0.047700
     38 H132        -4.4470    -1.7750    -0.6270 hc         1 XH8       0.047700
     39 H15         -5.0380     1.7620    -1.6690 ha         1 XH8       0.119000
     40 H19         -5.7670    -1.1890     1.3370 h4         1 XH8       0.016100
     41 H16         -6.7260     3.2050    -0.5300 ha         1 XH8       0.123000
     42 H17         -7.8450     2.3480     1.5110 h4         1 XH8       0.018100
@<TRIPOS>BOND
     1     1     2 1   
     2     1    23 1   
     3     1    24 1   
     4     2     3 ar  
     5     2    22 ar  
     6     3     4 ar  
     7     3    25 1   
     8     4     5 ar  
     9     4    26 1   
    10     5     6 ar  
    11     5    21 ar  
    12     6     7 ar  
    13     6    27 1   
    14     7     8 ar  
    15     7    28 1   
    16     8     9 1   
    17     8    20 ar  
    18     9    10 1   
    19     9    29 1   
    20     9    30 1   
    21    10    11 1   
    22    10    32 1   
    23    11    12 1   
    24    11    33 1   
    25    11    34 1   
    26    12    13 1   
    27    12    35 1   
    28    12    36 1   
    29    13    14 1   
    30    13    37 1   
    31    13    38 1   
    32    14    15 ar  
    33    14    19 ar  
    34    15    16 ar  
    35    15    39 1   
    36    16    17 ar  
    37    16    41 1   
    38    17    18 ar  
    39    17    42 1   
    40    18    19 ar  
    41    19    40 1   
    42    20    21 ar  
    43    20    31 1   
    44    21    22 ar  
@<TRIPOS>SUBSTRUCTURE
     1 XH8         1 TEMP              0 ****  ****    0 ROOT
