@<TRIPOS>MOLECULE
XH9
   44    46     1     0     0
SMALL
No Charge or Current Charge


@<TRIPOS>ATOM
      1 C10        -21.9850    -5.9520   -28.6050 c3         1 XH9       0.179800
      2 N12        -21.6120    -4.8840   -26.2720 n          1 XH9      -0.397800
      3 C13        -20.6830    -3.8180   -26.1730 c          1 XH9       0.615700
      4 C15        -18.5610    -5.2360   -25.9960 ca         1 XH9      -0.046000
      5 C20        -18.4800    -3.0660   -27.0710 ca         1 XH9       0.376900
      6 C22        -22.1400    -4.4930   -31.6090 ca         1 XH9      -0.100000
      7 C24        -20.4870    -3.4320   -33.0410 ca         1 XH9      -0.115000
      8 N01        -20.5200    -0.6160   -29.0890 n1         1 XH9      -0.451000
      9 C03        -20.9600    -2.5070   -30.8290 ca         1 XH9      -0.021000
     10 C04        -21.9040    -3.5420   -30.5900 ca         1 XH9      -0.053300
     11 C05        -22.6970    -3.6230   -29.2710 c3         1 XH9       0.242100
     12 N06        -23.1050    -4.9980   -28.8690 n3         1 XH9      -0.791600
     13 C07        -24.2410    -5.0550   -27.9150 c3         1 XH9       0.209800
     14 C08        -24.0510    -4.2500   -26.6060 c3         1 XH9      -0.142400
     15 C09        -22.9540    -4.7690   -25.6580 c3         1 XH9       0.098000
     16 C11        -21.4100    -6.0570   -27.1650 c3         1 XH9       0.072000
     17 C14        -19.2300    -4.0730   -26.4400 ca         1 XH9      -0.190600
     18 C16        -17.1890    -5.3610   -26.2600 ca         1 XH9       0.049000
     19 Cl17       -16.3130    -6.7990   -25.7400 cl         1 XH9      -0.180000
     20 C18        -16.5280    -4.3150   -26.9350 ca         1 XH9       0.360900
     21 N19        -17.1540    -3.1790   -27.3310 nb         1 XH9      -0.655000
     22 O21        -21.0410    -2.7110   -25.7920 o          1 XH9      -0.579100
     23 C23        -21.4330    -4.4430   -32.8220 ca         1 XH9      -0.092000
     24 C25        -20.2560    -2.4650   -32.0500 ca         1 XH9      -0.072000
     25 H101       -22.3060    -6.9620   -28.8920 h1         1 XH9       0.051200
     26 H102       -21.1430    -5.7160   -29.2700 h1         1 XH9       0.051200
     27 H151       -19.0830    -6.0150   -25.4440 ha         1 XH9       0.138000
     28 H201       -18.9500    -2.1380   -27.3910 h4         1 XH9       0.043100
     29 H221       -22.8760    -5.2800   -31.4610 ha         1 XH9       0.133000
     30 H241       -19.9400    -3.3920   -33.9800 ha         1 XH9       0.120000
     31 H051       -23.5900    -2.9960   -29.3960 h1         1 XH9       0.050200
     32 H052       -22.1100    -3.1740   -28.4600 h1         1 XH9       0.050200
     33 H072       -24.4670    -6.1000   -27.6590 h1         1 XH9       0.048700
     34 H071       -25.1370    -4.6610   -28.4130 h1         1 XH9       0.048700
     35 H082       -23.8570    -3.1980   -26.8400 hc         1 XH9       0.057700
     36 H081       -25.0010    -4.2630   -26.0600 hc         1 XH9       0.057700
     37 H092       -22.9000    -4.1120   -24.7800 h1         1 XH9       0.060200
     38 H091       -23.2520    -5.7590   -25.2880 h1         1 XH9       0.060200
     39 H111       -21.8940    -6.9170   -26.6850 h1         1 XH9       0.056200
     40 H112       -20.3540    -6.3250   -27.2550 h1         1 XH9       0.056200
     41 H181       -15.4630    -4.3830   -27.1530 h4         1 XH9       0.037100
     42 H231       -21.6230    -5.1880   -33.5920 ha         1 XH9       0.116000
     43 H251       -19.5300    -1.6750   -32.2370 ha         1 XH9       0.126000
     44 C02        -20.7120    -1.4680   -29.8640 cg         1 XH9       0.319000
@<TRIPOS>BOND
     1     1    12 1   
     2     1    16 1   
     3     1    25 1   
     4     1    26 1   
     5     2     3 1   
     6     2    15 1   
     7     2    16 1   
     8     3    17 1   
     9     3    22 2   
    10     4    17 ar  
    11     4    18 ar  
    12     4    27 1   
    13     5    17 ar  
    14     5    21 ar  
    15     5    28 1   
    16     6    10 ar  
    17     6    23 ar  
    18     6    29 1   
    19     7    23 ar  
    20     7    24 ar  
    21     7    30 1   
    22     8    44 3   
    23     9    10 ar  
    24     9    24 ar  
    25     9    44 1   
    26    10    11 1   
    27    11    12 1   
    28    11    31 1   
    29    11    32 1   
    30    12    13 1   
    31    13    14 1   
    32    13    33 1   
    33    13    34 1   
    34    14    15 1   
    35    14    35 1   
    36    14    36 1   
    37    15    37 1   
    38    15    38 1   
    39    16    39 1   
    40    16    40 1   
    41    18    19 1   
    42    18    20 ar  
    43    20    21 ar  
    44    20    41 1   
    45    23    42 1   
    46    24    43 1   
@<TRIPOS>SUBSTRUCTURE
     1 XH9         1 TEMP              0 ****  ****    0 ROOT
