@<TRIPOS>MOLECULE
XH9
   44    46     1     0     0
SMALL
abcg2


@<TRIPOS>ATOM
      1 C10        -21.6140    -5.7120   -28.4630 c3         1 XH9       0.179800
      2 N12        -21.6930    -4.9940   -26.0650 n          1 XH9      -0.397800
      3 C13        -20.8010    -4.0090   -25.8520 c          1 XH9       0.615700
      4 C15        -18.6070    -5.2730   -25.8140 ca         1 XH9      -0.046000
      5 C20        -18.8010    -3.3150   -27.1620 ca         1 XH9       0.376900
      6 C22        -22.1130    -4.4770   -31.5440 ca         1 XH9      -0.100000
      7 C24        -20.7300    -3.4070   -33.2040 ca         1 XH9      -0.115000
      8 N01        -20.2590    -0.6050   -29.3540 n1         1 XH9      -0.451000
      9 C03        -20.9390    -2.4730   -30.9990 ca         1 XH9      -0.021000
     10 C04        -21.8050    -3.5010   -30.6050 ca         1 XH9      -0.053300
     11 C05        -22.4200    -3.5360   -29.2230 c3         1 XH9       0.242100
     12 N06        -22.7450    -4.8700   -28.7980 n3         1 XH9      -0.791600
     13 C07        -23.9600    -5.0010   -28.0220 c3         1 XH9       0.209800
     14 C08        -23.9900    -4.2510   -26.6850 c3         1 XH9      -0.142400
     15 C09        -23.0700    -4.8240   -25.6160 c3         1 XH9       0.098000
     16 C11        -21.4770    -6.0980   -26.9890 c3         1 XH9       0.072000
     17 C14        -19.3900    -4.2370   -26.3050 ca         1 XH9      -0.190600
     18 C16        -17.2890    -5.3410   -26.2260 ca         1 XH9       0.049000
     19 CL17       -16.2560    -6.5970   -25.6530 cl         1 XH9      -0.180000
     20 C18        -16.7930    -4.3900   -27.1070 ca         1 XH9       0.360900
     21 N19        -17.5410    -3.3970   -27.5630 nb         1 XH9      -0.655000
     22 O21        -21.0730    -2.9520   -25.3020 o          1 XH9      -0.579100
     23 C23        -21.5860    -4.4330   -32.8260 ca         1 XH9      -0.092000
     24 C25        -20.4040    -2.4230   -32.2890 ca         1 XH9      -0.072000
     25 H101       -21.6400    -6.6510   -29.0300 h1         1 XH9       0.051200
     26 H102       -20.7020    -5.2010   -28.7790 h1         1 XH9       0.051200
     27 H151       -19.0100    -6.0010   -25.1210 ha         1 XH9       0.138000
     28 H201       -19.3770    -2.4800   -27.5450 h4         1 XH9       0.043100
     29 H221       -22.7720    -5.2850   -31.2550 ha         1 XH9       0.133000
     30 H241       -20.3150    -3.3750   -34.2020 ha         1 XH9       0.120000
     31 H051       -23.3440    -2.9500   -29.2590 h1         1 XH9       0.050200
     32 H052       -21.7670    -3.0010   -28.5180 h1         1 XH9       0.050200
     33 H072       -24.1560    -6.0650   -27.8590 h1         1 XH9       0.048700
     34 H071       -24.7900    -4.6380   -28.6330 h1         1 XH9       0.048700
     35 H082       -23.7510    -3.1970   -26.8510 hc         1 XH9       0.057700
     36 H081       -25.0110    -4.2750   -26.2940 hc         1 XH9       0.057700
     37 H092       -23.0790    -4.1920   -24.7310 h1         1 XH9       0.060200
     38 H091       -23.4290    -5.8080   -25.3100 h1         1 XH9       0.060200
     39 H111       -22.2070    -6.8670   -26.7320 h1         1 XH9       0.056200
     40 H112       -20.5020    -6.5600   -26.8420 h1         1 XH9       0.056200
     41 H181       -15.7630    -4.4360   -27.4430 h4         1 XH9       0.037100
     42 H231       -21.8450    -5.2080   -33.5360 ha         1 XH9       0.116000
     43 H251       -19.7350    -1.6180   -32.5620 ha         1 XH9       0.126000
     44 C02        -20.5730    -1.4420   -30.0810 cg         1 XH9       0.319000
@<TRIPOS>BOND
     1     1    12 1   
     2     1    16 1   
     3     1    25 1   
     4     1    26 1   
     5     2     3 1   
     6     2    15 1   
     7     2    16 1   
     8     3    17 1   
     9     3    22 2   
    10     4    17 ar  
    11     4    18 ar  
    12     4    27 1   
    13     5    17 ar  
    14     5    21 ar  
    15     5    28 1   
    16     6    10 ar  
    17     6    23 ar  
    18     6    29 1   
    19     7    23 ar  
    20     7    24 ar  
    21     7    30 1   
    22     8    44 3   
    23     9    10 ar  
    24     9    24 ar  
    25     9    44 1   
    26    10    11 1   
    27    11    12 1   
    28    11    31 1   
    29    11    32 1   
    30    12    13 1   
    31    13    14 1   
    32    13    33 1   
    33    13    34 1   
    34    14    15 1   
    35    14    35 1   
    36    14    36 1   
    37    15    37 1   
    38    15    38 1   
    39    16    39 1   
    40    16    40 1   
    41    18    19 1   
    42    18    20 ar  
    43    20    21 ar  
    44    20    41 1   
    45    23    42 1   
    46    24    43 1   
@<TRIPOS>SUBSTRUCTURE
     1 XH9         1 TEMP              0 ****  ****    0 ROOT
