@<TRIPOS>MOLECULE
XHA
   52    53     1     0     0
SMALL
No Charge or Current Charge


@<TRIPOS>ATOM
      1 C4          -3.4800     1.1450    -0.2500 c5         1 XHA       0.255500
      2 C14          3.5360    -3.6190     0.4520 ca         1 XHA      -0.115000
      3 C5          -4.4490     0.9630     0.9660 c5         1 XHA       0.128300
      4 C6          -4.5730    -0.5920     0.9690 c5         1 XHA       0.105300
      5 C11          1.2850    -0.7090    -0.6200 c3         1 XHA      -0.035100
      6 C7          -3.1250    -1.0630     0.5380 c5         1 XHA       0.253500
      7 C8          -3.1840    -2.1490    -0.6000 c3         1 XHA       0.141600
      8 C10         -0.0370    -0.6690     0.1760 c3         1 XHA      -0.089400
      9 C12          2.3580    -1.5170     0.0960 ca         1 XHA      -0.075300
     10 C13          2.5440    -2.8780    -0.2100 ca         1 XHA      -0.079000
     11 N1          -1.3120     3.2800    -2.0590 ns         1 XHA      -0.508900
     12 N2          -2.4030     0.2380     0.2430 n3         1 XHA      -0.837600
     13 C3          -3.0720     2.6210    -0.4760 c3         1 XHA      -0.156400
     14 C1          -0.6810     3.5790    -3.3460 c3         1 XHA       0.091300
     15 C2          -2.6190     2.8720    -1.9110 c          1 XHA       0.594100
     16 O1          -3.3750     2.7680    -2.8660 o          1 XHA      -0.618100
     17 O2          -3.8320     1.4190     2.1820 oh         1 XHA      -0.654000
     18 O3          -4.9930    -1.0700     2.2560 oh         1 XHA      -0.658000
     19 O4          -3.8220    -1.6870    -1.8090 oh         1 XHA      -0.663000
     20 C15          4.3440    -3.0090     1.4260 ca         1 XHA      -0.063000
     21 C16          4.1610    -1.6480     1.7540 ca         1 XHA      -0.196300
     22 C17          5.0430    -0.9710     2.8100 c3         1 XHA       0.355300
     23 F1           6.1160    -0.3750     2.2450 f          1 XHA      -0.115667
     24 F2           4.3760    -0.0160     3.4980 f          1 XHA      -0.115667
     25 F3           5.5150    -1.8460     3.7280 f          1 XHA      -0.115667
     26 C18          3.1680    -0.9090     1.0750 ca         1 XHA      -0.065000
     27 H1          -3.9520     0.7750    -1.1710 h1         1 XHA       0.057700
     28 H3          -5.4190     1.4530     0.8030 h1         1 XHA       0.047700
     29 H4          -5.3060    -0.8940     0.2080 h1         1 XHA       0.065700
     30 H5           1.0930    -1.1320    -1.6140 hc         1 XHA       0.051200
     31 H6           1.6370     0.3170    -0.7870 hc         1 XHA       0.051200
     32 H7          -2.6330    -1.5530     1.3900 h1         1 XHA       0.066700
     33 H8          -2.1640    -2.4870    -0.8230 h1         1 XHA       0.029200
     34 H9          -3.7260    -3.0190    -0.2060 h1         1 XHA       0.029200
     35 H12         -0.3750    -1.6960     0.3490 hc         1 XHA       0.044700
     36 H13          0.1510    -0.2260     1.1620 hc         1 XHA       0.044700
     37 H14          1.9230    -3.3600    -0.9610 ha         1 XHA       0.117000
     38 H15         -0.7610     3.3760    -1.2140 hn         1 XHA       0.317500
     39 H17         -3.9520     3.2530    -0.3100 hc         1 XHA       0.073700
     40 H18         -2.2940     2.9150     0.2360 hc         1 XHA       0.073700
     41 H19         -0.7150     2.6900    -3.9890 h1         1 XHA       0.039700
     42 H20         -1.2120     4.4050    -3.8350 h1         1 XHA       0.039700
     43 H21          0.3650     3.8670    -3.1830 h1         1 XHA       0.039700
     44 H22         -2.8830     1.1970     2.0160 ho         1 XHA       0.455000
     45 H23         -4.7340    -0.3480     2.8770 ho         1 XHA       0.450000
     46 H24         -3.7770    -2.4230    -2.4580 ho         1 XHA       0.443000
     47 H25          5.1110    -3.6010     1.9230 ha         1 XHA       0.131000
     48 H26          3.0200     0.1450     1.3060 ha         1 XHA       0.126000
     49 C9          -1.1410     0.1440    -0.5330 c3         1 XHA       0.230800
     50 H2           3.6800    -4.6700     0.2090 ha         1 XHA       0.120000
     51 H10         -0.7340     1.1490    -0.6930 h1         1 XHA       0.044200
     52 H11         -1.3300    -0.2860    -1.5260 h1         1 XHA       0.044200
@<TRIPOS>BOND
     1     1     3 1   
     2     1    12 1   
     3     1    13 1   
     4     1    27 1   
     5     2    10 ar  
     6     2    20 ar  
     7     2    50 1   
     8     3     4 1   
     9     3    17 1   
    10     3    28 1   
    11     4     6 1   
    12     4    18 1   
    13     4    29 1   
    14     5     8 1   
    15     5     9 1   
    16     5    30 1   
    17     5    31 1   
    18     6     7 1   
    19     6    12 1   
    20     6    32 1   
    21     7    19 1   
    22     7    33 1   
    23     7    34 1   
    24     8    35 1   
    25     8    36 1   
    26     8    49 1   
    27     9    10 ar  
    28     9    26 ar  
    29    10    37 1   
    30    11    14 1   
    31    11    15 1   
    32    11    38 1   
    33    12    49 1   
    34    13    15 1   
    35    13    39 1   
    36    13    40 1   
    37    14    41 1   
    38    14    42 1   
    39    14    43 1   
    40    15    16 2   
    41    17    44 1   
    42    18    45 1   
    43    19    46 1   
    44    20    21 ar  
    45    20    47 1   
    46    21    22 1   
    47    21    26 ar  
    48    22    23 1   
    49    22    24 1   
    50    22    25 1   
    51    26    48 1   
    52    49    51 1   
    53    49    52 1   
@<TRIPOS>SUBSTRUCTURE
     1 XHA         1 TEMP              0 ****  ****    0 ROOT
