@<TRIPOS>MOLECULE
XHA
   52    53     1     0     0
SMALL
bcc


@<TRIPOS>ATOM
      1 C4          -3.2060     1.0740    -0.3160 c5         1 XHA       0.255500
      2 C14          3.5370    -2.7370     1.3430 ca         1 XHA      -0.133000
      3 C5          -4.5310     1.1270     0.4360 c5         1 XHA       0.105100
      4 C6          -5.0680    -0.2830     0.2160 c5         1 XHA       0.082100
      5 C11          0.7870    -1.4700    -0.9480 c3         1 XHA      -0.035100
      6 C7          -3.8200    -1.1530     0.3690 c5         1 XHA       0.253500
      7 C8          -3.9660    -2.5090    -0.2960 c3         1 XHA       0.118400
      8 C10         -0.3790    -1.0100    -0.0710 c3         1 XHA      -0.089400
      9 C12          2.0670    -1.5570    -0.1720 ca         1 XHA      -0.075300
     10 C13          2.3810    -2.6880     0.5810 ca         1 XHA      -0.097000
     11 N1           0.1170     2.6020    -0.2520 ns         1 XHA      -0.575900
     12 N2          -2.7570    -0.2930    -0.1210 n3         1 XHA      -0.837600
     13 C3          -2.2170     2.1350     0.1730 c3         1 XHA      -0.156400
     14 C1           1.2760     2.9810    -1.0240 c3         1 XHA       0.091300
     15 C2          -1.0970     2.4450    -0.8000 c          1 XHA       0.661100
     16 O1          -1.2920     2.5870    -2.0010 o          1 XHA      -0.618100
     17 O2          -4.3110     1.3670     1.8060 oh         1 XHA      -0.591800
     18 O3          -6.0570    -0.6680     1.1370 oh         1 XHA      -0.595800
     19 O4          -4.2690    -2.3630    -1.6650 oh         1 XHA      -0.600800
     20 C15          4.4070    -1.6550     1.3740 ca         1 XHA      -0.081000
     21 C16          4.1050    -0.5260     0.6260 ca         1 XHA      -0.196300
     22 C17          4.9960     0.6750     0.6290 c3         1 XHA       0.719200
     23 F1           5.3680     1.0250    -0.6110 f          1 XHA      -0.236967
     24 F2           4.3760     1.7480     1.1510 f          1 XHA      -0.236967
     25 F3           6.1150     0.4930     1.3350 f          1 XHA      -0.236967
     26 C18          2.9450    -0.4810    -0.1400 ca         1 XHA      -0.083000
     27 H1          -3.4200     1.2820    -1.3760 h1         1 XHA       0.057700
     28 H3          -5.1900     1.8930     0.0040 h1         1 XHA       0.047700
     29 H4          -5.4320    -0.3560    -0.8160 h1         1 XHA       0.065700
     30 H5           0.5500    -2.4400    -1.3930 hc         1 XHA       0.051200
     31 H6           0.9070    -0.7670    -1.7780 hc         1 XHA       0.051200
     32 H7          -3.6860    -1.3800     1.4390 h1         1 XHA       0.066700
     33 H8          -3.0510    -3.0970    -0.1470 h1         1 XHA       0.029200
     34 H9          -4.7630    -3.0420     0.2400 h1         1 XHA       0.029200
     35 H12         -0.5660    -1.7530     0.7110 hc         1 XHA       0.044700
     36 H13         -0.1040    -0.0820     0.4360 hc         1 XHA       0.044700
     37 H14          1.7100    -3.5390     0.5680 ha         1 XHA       0.135000
     38 H15          0.2190     2.5080     0.7440 hn         1 XHA       0.317500
     39 H17         -2.7550     3.0800     0.3070 hc         1 XHA       0.073700
     40 H18         -1.8290     1.8510     1.1510 hc         1 XHA       0.073700
     41 H19          1.4580     2.2800    -1.8390 h1         1 XHA       0.039700
     42 H20          1.1770     3.9790    -1.4510 h1         1 XHA       0.039700
     43 H21          2.1440     2.9770    -0.3690 h1         1 XHA       0.039700
     44 H22         -5.0550     0.9860     2.2870 ho         1 XHA       0.416000
     45 H23         -6.9040    -0.3190     0.8430 ho         1 XHA       0.411000
     46 H24         -4.3540    -3.2400    -2.0470 ho         1 XHA       0.404000
     47 H25          5.3040    -1.7090     1.9750 ha         1 XHA       0.149000
     48 H26          2.7130     0.3960    -0.7340 ha         1 XHA       0.144000
     49 C9          -1.6480    -0.7910    -0.8910 c3         1 XHA       0.230800
     50 H2           3.7670    -3.6230     1.9200 ha         1 XHA       0.138000
     51 H10         -1.4330    -0.0860    -1.7000 h1         1 XHA       0.044200
     52 H11         -1.9030    -1.7240    -1.3990 h1         1 XHA       0.044200
@<TRIPOS>BOND
     1     1     3 1   
     2     1    12 1   
     3     1    13 1   
     4     1    27 1   
     5     2    10 ar  
     6     2    20 ar  
     7     2    50 1   
     8     3     4 1   
     9     3    17 1   
    10     3    28 1   
    11     4     6 1   
    12     4    18 1   
    13     4    29 1   
    14     5     8 1   
    15     5     9 1   
    16     5    30 1   
    17     5    31 1   
    18     6     7 1   
    19     6    12 1   
    20     6    32 1   
    21     7    19 1   
    22     7    33 1   
    23     7    34 1   
    24     8    35 1   
    25     8    36 1   
    26     8    49 1   
    27     9    10 ar  
    28     9    26 ar  
    29    10    37 1   
    30    11    14 1   
    31    11    15 1   
    32    11    38 1   
    33    12    49 1   
    34    13    15 1   
    35    13    39 1   
    36    13    40 1   
    37    14    41 1   
    38    14    42 1   
    39    14    43 1   
    40    15    16 2   
    41    17    44 1   
    42    18    45 1   
    43    19    46 1   
    44    20    21 ar  
    45    20    47 1   
    46    21    22 1   
    47    21    26 ar  
    48    22    23 1   
    49    22    24 1   
    50    22    25 1   
    51    26    48 1   
    52    49    51 1   
    53    49    52 1   
@<TRIPOS>SUBSTRUCTURE
     1 XHA         1 TEMP              0 ****  ****    0 ROOT
