@<TRIPOS>MOLECULE
XHB
   14    14     1     0     0
SMALL
abcg2


@<TRIPOS>ATOM
      1 C26         -0.3390     4.9970     3.5670 ca         1 XHB      -0.232500
      2 C28         -0.1340     4.9300     1.1210 ca         1 XHB      -0.299600
      3 C25         -0.2980     6.3790     3.4940 ca         1 XHB       0.255000
      4 C27         -0.2540     4.3120     2.3740 ca         1 XHB       0.272000
      5 C29         -0.1070     6.3330     1.1440 ca         1 XHB       0.272000
      6 C30         -0.1860     7.0750     2.3030 ca         1 XHB      -0.232500
      7 C33         -0.0360     4.1120    -0.0970 c          1 XHB       0.591500
      8 F24         -0.3700     7.0790     4.6360 f          1 XHB      -0.159000
      9 F31          0.0000     7.0030    -0.0090 f          1 XHB      -0.151500
     10 F32         -0.2880     2.9700     2.4240 f          1 XHB      -0.151500
     11 O34          0.0770     4.5420    -1.2280 o          1 XHB      -0.496100
     12 H1          -0.4300     4.4800     4.5110 ha         1 XHB       0.161000
     13 H2          -0.1590     8.1550     2.2780 ha         1 XHB       0.161000
     14 H3          -0.0700     3.0260     0.0840 h4         1 XHB       0.011200
@<TRIPOS>BOND
     1     1     3 ar  
     2     1     4 ar  
     3     1    12 1   
     4     2     4 ar  
     5     2     5 ar  
     6     2     7 1   
     7     3     6 ar  
     8     3     8 1   
     9     4    10 1   
    10     5     6 ar  
    11     5     9 1   
    12     6    13 1   
    13     7    11 2   
    14     7    14 1   
@<TRIPOS>SUBSTRUCTURE
     1 XHB         1 TEMP              0 ****  ****    0 ROOT
