@<TRIPOS>MOLECULE
XHB
   14    14     1     0     0
SMALL
No Charge or Current Charge


@<TRIPOS>ATOM
      1 C26         -0.3360     5.0080     3.5710 ca         1 XHB      -0.232500
      2 C28         -0.1300     4.9260     1.1390 ca         1 XHB      -0.299600
      3 C25         -0.3040     6.4050     3.5300 ca         1 XHB       0.255000
      4 C27         -0.2500     4.2750     2.3810 ca         1 XHB       0.272000
      5 C29         -0.0980     6.3370     1.1160 ca         1 XHB       0.272000
      6 C30         -0.1850     7.0700     2.3070 ca         1 XHB      -0.232500
      7 C33         -0.0400     4.1000    -0.1120 c          1 XHB       0.591500
      8 F24         -0.3870     7.1130     4.6770 f          1 XHB      -0.159000
      9 F31          0.0150     7.0210    -0.0440 f          1 XHB      -0.151500
     10 F32         -0.2830     2.9260     2.4490 f          1 XHB      -0.151500
     11 O34          0.0670     4.5660    -1.2410 o          1 XHB      -0.496100
     12 H1          -0.4290     4.4930     4.5220 ha         1 XHB       0.161000
     13 H2          -0.1600     8.1550     2.2800 ha         1 XHB       0.161000
     14 H3          -0.0740     2.9970     0.0250 h4         1 XHB       0.011200
@<TRIPOS>BOND
     1     1     3 ar  
     2     1     4 ar  
     3     1    12 1   
     4     2     4 ar  
     5     2     5 ar  
     6     2     7 1   
     7     3     6 ar  
     8     3     8 1   
     9     4    10 1   
    10     5     6 ar  
    11     5     9 1   
    12     6    13 1   
    13     7    11 2   
    14     7    14 1   
@<TRIPOS>SUBSTRUCTURE
     1 XHB         1 TEMP              0 ****  ****    0 ROOT
