@<TRIPOS>MOLECULE
XHD
   10     9     1     0     0
SMALL
bcc


@<TRIPOS>ATOM
      1 N01        -12.6980    11.8260    -6.9650 n1         1 XHD      -0.346800
      2 C02        -12.1520    12.7800    -7.3000 c1         1 XHD       0.222700
      3 C03        -11.4550    13.9680    -7.7510 c3         1 XHD      -0.110300
      4 C04        -11.5600    15.0980    -6.7270 c          1 XHD       0.680100
      5 N05        -10.8780    16.1940    -7.0720 nt         1 XHD      -0.678000
      6 O06        -12.2150    14.9770    -5.7100 o          1 XHD      -0.573100
      7 H032       -10.4080    13.7170    -7.9410 hc         1 XHD       0.084700
      8 H031       -11.8780    14.2870    -8.7070 hc         1 XHD       0.084700
      9 H051       -10.8900    17.0060    -6.4770 hn         1 XHD       0.318500
     10 H052       -10.3480    16.2510    -7.9250 hn         1 XHD       0.318500
@<TRIPOS>BOND
     1     1     2 3   
     2     2     3 1   
     3     3     4 1   
     4     3     7 1   
     5     3     8 1   
     6     4     5 1   
     7     4     6 2   
     8     5     9 1   
     9     5    10 1   
@<TRIPOS>SUBSTRUCTURE
     1 XHD         1 TEMP              0 ****  ****    0 ROOT
