@<TRIPOS>MOLECULE
XHD
   10     9     1     0     0
SMALL
No Charge or Current Charge


@<TRIPOS>ATOM
      1 N01        -11.7870    11.7880    -6.7190 n1         1 XHD      -0.436000
      2 C02        -11.7940    12.8250    -7.2490 c1         1 XHD       0.311900
      3 C03        -11.7910    14.1070    -7.9460 c3         1 XHD      -0.110300
      4 C04        -11.7840    15.2640    -6.9590 c          1 XHD       0.613100
      5 N05        -10.6060    15.9050    -6.7860 nt         1 XHD      -0.611000
      6 O06        -12.7740    15.6220    -6.3420 o          1 XHD      -0.573100
      7 H032       -10.9010    14.1390    -8.5820 hc         1 XHD       0.084700
      8 H031       -12.6990    14.1600    -8.5550 hc         1 XHD       0.084700
      9 H051       -10.5580    16.6800    -6.1410 hn         1 XHD       0.318500
     10 H052        -9.7860    15.6120    -7.2960 hn         1 XHD       0.318500
@<TRIPOS>BOND
     1     1     2 3   
     2     2     3 1   
     3     3     4 1   
     4     3     7 1   
     5     3     8 1   
     6     4     5 1   
     7     4     6 2   
     8     5     9 1   
     9     5    10 1   
@<TRIPOS>SUBSTRUCTURE
     1 XHD         1 TEMP              0 ****  ****    0 ROOT
