@<TRIPOS>MOLECULE
XHE
   68    71     1     0     0
SMALL
No Charge or Current Charge


@<TRIPOS>ATOM
      1 CBI        -17.2030    15.8260   -18.0970 cx         1 XHE      -0.130900
      2 CBJ        -16.6450    15.8030   -19.4990 cx         1 XHE      -0.130900
      3 CBH        -18.0440    16.3110   -19.2510 cx         1 XHE       0.042700
      4 NBF        -19.1420    15.4820   -19.6700 ns         1 XHE      -0.480900
      5 C          -20.4540    15.6750   -19.2820 c          1 XHE       0.588100
      6 O          -20.7800    16.6020   -18.5470 o          1 XHE      -0.596100
      7 CA         -21.4710    14.6240   -19.8270 c3         1 XHE       0.140800
      8 N          -22.7660    14.6220   -19.0910 nu         1 XHE      -0.817200
      9 CAV        -23.7970    13.7360   -19.2270 cc         1 XHE       0.305000
     10 CAW        -23.8570    12.8240   -20.2400 cd         1 XHE      -0.464200
     11 CAX        -24.9900    11.9200   -20.4340 c          1 XHE       0.577200
     12 OBA        -25.0140    11.1110   -21.3510 o          1 XHE      -0.585000
     13 NAY        -26.0350    12.0520   -19.4990 n          1 XHE      -0.282000
     14 CBC        -27.2070    11.1580   -19.6310 c3         1 XHE       0.083300
     15 CAZ        -25.9760    12.9840   -18.4640 cd         1 XHE       0.007600
     16 CAU        -24.9040    13.8470   -18.3100 cc         1 XHE      -0.170200
     17 CAA        -24.9760    14.6840   -17.0890 ca         1 XHE      -0.086800
     18 CAF        -26.1820    15.3620   -16.7990 ca         1 XHE      -0.037000
     19 CAE        -26.3280    16.1690   -15.6440 ca         1 XHE      -0.107300
     20 CAH        -27.6390    16.9250   -15.3290 c3         1 XHE       0.237300
     21 CAI        -27.3980    18.4510   -15.3350 c3         1 XHE      -0.119100
     22 CAJ        -28.2200    16.4660   -13.9720 c3         1 XHE      -0.119100
     23 OAK        -28.6380    16.6590   -16.3150 oh         1 XHE      -0.660000
     24 CAD        -25.2300    16.2840   -14.7660 ca         1 XHE      -0.066000
     25 CAC        -24.0350    15.6010   -15.0240 ca         1 XHE      -0.191000
     26 CAB        -23.9030    14.7980   -16.1700 ca         1 XHE       0.150100
     27 OAG        -22.7520    14.0620   -16.3410 os         1 XHE      -0.241200
     28 CAL        -22.1480    13.3980   -15.2950 ca         1 XHE       0.069100
     29 CAM        -22.8080    12.3210   -14.6520 ca         1 XHE      -0.044300
     30 CAR        -24.1850    11.8430   -15.1060 c3         1 XHE      -0.049800
     31 CAN        -22.1710    11.6660   -13.5800 ca         1 XHE      -0.154500
     32 CAO        -20.8950    12.0700   -13.1640 ca         1 XHE       0.178000
     33 FAT        -20.2930    11.4320   -12.1370 f          1 XHE      -0.177000
     34 CAP        -20.2360    13.1240   -13.8100 ca         1 XHE      -0.154500
     35 CAQ        -20.8560    13.7950   -14.8810 ca         1 XHE      -0.044300
     36 CAS        -20.1290    14.9360   -15.5820 c3         1 XHE      -0.049800
     37 H1         -17.4610    14.8740   -17.6390 hc         1 XHE       0.078950
     38 H2         -16.8160    16.5730   -17.4080 hc         1 XHE       0.078950
     39 H3         -16.5260    14.8360   -19.9810 hc         1 XHE       0.078950
     40 H4         -15.8820    16.5340   -19.7530 hc         1 XHE       0.078950
     41 H5         -18.2250    17.3840   -19.3430 h1         1 XHE       0.089700
     42 H6         -18.9610    14.6950   -20.2840 hn         1 XHE       0.322500
     43 H7         -21.6330    14.8420   -20.8910 h1         1 XHE       0.060200
     44 H8         -20.9980    13.6360   -19.7540 h1         1 XHE       0.060200
     45 H9         -22.7930    15.1440   -18.2130 hn         1 XHE       0.523000
     46 H10        -23.0700    12.7200   -20.9720 ha         1 XHE       0.199000
     47 H11        -27.9600    11.3850   -18.8650 h1         1 XHE       0.050033
     48 H12        -27.6620    11.2890   -20.6210 h1         1 XHE       0.050033
     49 H13        -26.8890    10.1140   -19.5160 h1         1 XHE       0.050033
     50 H14        -26.8280    12.9420   -17.7920 h4         1 XHE       0.197000
     51 H15        -27.0050    15.2790   -17.5030 ha         1 XHE       0.139000
     52 H16        -26.6870    18.7430   -14.5530 hc         1 XHE       0.043033
     53 H17        -26.9900    18.7740   -16.3010 hc         1 XHE       0.043033
     54 H18        -28.3320    19.0000   -15.1580 hc         1 XHE       0.043033
     55 H19        -27.5420    16.7090   -13.1460 hc         1 XHE       0.043033
     56 H20        -29.1800    16.9550   -13.7680 hc         1 XHE       0.043033
     57 H21        -28.3820    15.3810   -13.9690 hc         1 XHE       0.043033
     58 H22        -29.4330    17.1700   -16.0550 ho         1 XHE       0.445000
     59 H23        -25.3020    16.8970   -13.8710 ha         1 XHE       0.111000
     60 H24        -23.2100    15.6870   -14.3210 ha         1 XHE       0.128000
     61 H25        -24.2350    11.7580   -16.1980 hc         1 XHE       0.052033
     62 H26        -24.4280    10.8570   -14.6940 hc         1 XHE       0.052033
     63 H27        -24.9690    12.5380   -14.7840 hc         1 XHE       0.052033
     64 H28        -22.6600    10.8400   -13.0710 ha         1 XHE       0.134000
     65 H29        -19.2430    13.4160   -13.4760 ha         1 XHE       0.134000
     66 H30        -20.7650    15.8250   -15.6590 hc         1 XHE       0.052033
     67 H31        -19.2180    15.2310   -15.0460 hc         1 XHE       0.052033
     68 H32        -19.8350    14.6410   -16.5950 hc         1 XHE       0.052033
@<TRIPOS>BOND
     1     1     2 1   
     2     1     3 1   
     3     1    37 1   
     4     1    38 1   
     5     2     3 1   
     6     2    39 1   
     7     2    40 1   
     8     3     4 1   
     9     3    41 1   
    10     4     5 1   
    11     4    42 1   
    12     5     6 2   
    13     5     7 1   
    14     7     8 1   
    15     7    43 1   
    16     7    44 1   
    17     8     9 1   
    18     8    45 1   
    19     9    10 2   
    20     9    16 1   
    21    10    11 1   
    22    10    46 1   
    23    11    12 2   
    24    11    13 1   
    25    13    14 1   
    26    13    15 1   
    27    14    47 1   
    28    14    48 1   
    29    14    49 1   
    30    15    16 2   
    31    15    50 1   
    32    16    17 1   
    33    17    18 ar  
    34    17    26 ar  
    35    18    19 ar  
    36    18    51 1   
    37    19    20 1   
    38    19    24 ar  
    39    20    21 1   
    40    20    22 1   
    41    20    23 1   
    42    21    52 1   
    43    21    53 1   
    44    21    54 1   
    45    22    55 1   
    46    22    56 1   
    47    22    57 1   
    48    23    58 1   
    49    24    25 ar  
    50    24    59 1   
    51    25    26 ar  
    52    25    60 1   
    53    26    27 1   
    54    27    28 1   
    55    28    29 ar  
    56    28    35 ar  
    57    29    30 1   
    58    29    31 ar  
    59    30    61 1   
    60    30    62 1   
    61    30    63 1   
    62    31    32 ar  
    63    31    64 1   
    64    32    33 1   
    65    32    34 ar  
    66    34    35 ar  
    67    34    65 1   
    68    35    36 1   
    69    36    66 1   
    70    36    67 1   
    71    36    68 1   
@<TRIPOS>SUBSTRUCTURE
     1 XHE         1 TEMP              0 ****  ****    0 ROOT
