@<TRIPOS>MOLECULE
XHE
   68    71     1     0     0
SMALL
abcg2


@<TRIPOS>ATOM
      1 CBI        -18.1450    17.1710   -18.1050 cx         1 XHE      -0.130900
      2 CBJ        -17.2990    16.7660   -19.2720 cx         1 XHE      -0.130900
      3 CBH        -18.7520    17.0560   -19.4670 cx         1 XHE       0.042700
      4 NBF        -19.6180    15.9590   -19.7490 ns         1 XHE      -0.480900
      5 C          -20.8500    15.8630   -19.2280 c          1 XHE       0.588100
      6 O          -21.3130    16.6650   -18.4330 o          1 XHE      -0.596100
      7 CA         -21.6530    14.6680   -19.7190 c3         1 XHE       0.140800
      8 N          -22.7980    14.4890   -18.8810 nu         1 XHE      -0.817200
      9 CAV        -23.7620    13.5780   -19.1070 cc         1 XHE       0.305000
     10 CAW        -23.7280    12.6890   -20.1620 cd         1 XHE      -0.464200
     11 CAX        -24.7730    11.7550   -20.4140 c          1 XHE       0.577200
     12 OBA        -24.7850    10.9340   -21.3330 o          1 XHE      -0.585000
     13 NAY        -25.8570    11.8100   -19.5370 n          1 XHE      -0.282000
     14 CBC        -26.9730    10.9110   -19.7770 c3         1 XHE       0.083300
     15 CAZ        -25.8750    12.6560   -18.4810 cd         1 XHE       0.007600
     16 CAU        -24.8800    13.5310   -18.2050 cc         1 XHE      -0.170200
     17 CAA        -24.9430    14.3870   -17.0010 ca         1 XHE      -0.086800
     18 CAF        -25.8050    15.4770   -16.9330 ca         1 XHE      -0.037000
     19 CAE        -25.8910    16.2800   -15.8010 ca         1 XHE      -0.107300
     20 CAH        -26.8380    17.4660   -15.7220 c3         1 XHE       0.237300
     21 CAI        -26.0490    18.7570   -15.4880 c3         1 XHE      -0.119100
     22 CAJ        -27.8490    17.2530   -14.5920 c3         1 XHE      -0.119100
     23 OAK        -27.5150    17.5400   -16.9620 oh         1 XHE      -0.660000
     24 CAD        -25.0700    15.9640   -14.7230 ca         1 XHE      -0.066000
     25 CAC        -24.1990    14.8860   -14.7590 ca         1 XHE      -0.191000
     26 CAB        -24.1360    14.0940   -15.8980 ca         1 XHE       0.150100
     27 OAG        -23.3280    13.0090   -16.0260 os         1 XHE      -0.241200
     28 CAL        -22.5070    12.6270   -14.9920 ca         1 XHE       0.069100
     29 CAM        -22.9750    11.6680   -14.0970 ca         1 XHE      -0.044300
     30 CAR        -24.3680    11.1240   -14.2130 c3         1 XHE      -0.049800
     31 CAN        -22.1080    11.2140   -13.1080 ca         1 XHE      -0.154500
     32 CAO        -20.8280    11.7260   -13.0460 ca         1 XHE       0.178000
     33 FAT        -19.9920    11.2680   -12.0990 f          1 XHE      -0.177000
     34 CAP        -20.3690    12.6810   -13.9290 ca         1 XHE      -0.154500
     35 CAQ        -21.2180    13.1500   -14.9270 ca         1 XHE      -0.044300
     36 CAS        -20.7470    14.1700   -15.9180 c3         1 XHE      -0.049800
     37 H1         -18.3980    16.4100   -17.3780 hc         1 XHE       0.078950
     38 H2         -18.0220    18.1640   -17.6940 hc         1 XHE       0.078950
     39 H3         -16.9800    15.7320   -19.3290 hc         1 XHE       0.078950
     40 H4         -16.5900    17.4770   -19.6740 hc         1 XHE       0.078950
     41 H5         -19.0050    17.9830   -19.9730 h1         1 XHE       0.089700
     42 H6         -19.3230    15.2790   -20.4340 hn         1 XHE       0.322500
     43 H7         -21.9410    14.8570   -20.7620 h1         1 XHE       0.060200
     44 H8         -21.0220    13.7730   -19.7290 h1         1 XHE       0.060200
     45 H9         -22.9510    15.1980   -18.1800 hn         1 XHE       0.523000
     46 H10        -22.8980    12.6770   -20.8550 ha         1 XHE       0.199000
     47 H11        -27.7360    11.0900   -19.0250 h1         1 XHE       0.050033
     48 H12        -27.4050    11.0850   -20.7610 h1         1 XHE       0.050033
     49 H13        -26.6580     9.8710   -19.7160 h1         1 XHE       0.050033
     50 H14        -26.7420    12.5890   -17.8370 h4         1 XHE       0.197000
     51 H15        -26.4160    15.6870   -17.8000 ha         1 XHE       0.139000
     52 H16        -25.5000    18.7320   -14.5470 hc         1 XHE       0.043033
     53 H17        -25.3320    18.9250   -16.2930 hc         1 XHE       0.043033
     54 H18        -26.7250    19.6140   -15.4460 hc         1 XHE       0.043033
     55 H19        -27.3580    17.1740   -13.6220 hc         1 XHE       0.043033
     56 H20        -28.5420    18.0960   -14.5380 hc         1 XHE       0.043033
     57 H21        -28.4280    16.3430   -14.7530 hc         1 XHE       0.043033
     58 H22        -28.1170    18.2910   -16.9270 ho         1 XHE       0.445000
     59 H23        -25.0980    16.5620   -13.8200 ha         1 XHE       0.111000
     60 H24        -23.5820    14.6680   -13.8970 ha         1 XHE       0.128000
     61 H25        -24.5410    10.6770   -15.1920 hc         1 XHE       0.052033
     62 H26        -24.5460    10.3590   -13.4590 hc         1 XHE       0.052033
     63 H27        -25.1190    11.9040   -14.0770 hc         1 XHE       0.052033
     64 H28        -22.4310    10.4630   -12.3980 ha         1 XHE       0.134000
     65 H29        -19.3570    13.0570   -13.8510 ha         1 XHE       0.134000
     66 H30        -21.3510    15.0780   -15.8840 hc         1 XHE       0.052033
     67 H31        -19.7140    14.4530   -15.7210 hc         1 XHE       0.052033
     68 H32        -20.8020    13.7850   -16.9360 hc         1 XHE       0.052033
@<TRIPOS>BOND
     1     1     2 1   
     2     1     3 1   
     3     1    37 1   
     4     1    38 1   
     5     2     3 1   
     6     2    39 1   
     7     2    40 1   
     8     3     4 1   
     9     3    41 1   
    10     4     5 1   
    11     4    42 1   
    12     5     6 2   
    13     5     7 1   
    14     7     8 1   
    15     7    43 1   
    16     7    44 1   
    17     8     9 1   
    18     8    45 1   
    19     9    10 2   
    20     9    16 1   
    21    10    11 1   
    22    10    46 1   
    23    11    12 2   
    24    11    13 1   
    25    13    14 1   
    26    13    15 1   
    27    14    47 1   
    28    14    48 1   
    29    14    49 1   
    30    15    16 2   
    31    15    50 1   
    32    16    17 1   
    33    17    18 ar  
    34    17    26 ar  
    35    18    19 ar  
    36    18    51 1   
    37    19    20 1   
    38    19    24 ar  
    39    20    21 1   
    40    20    22 1   
    41    20    23 1   
    42    21    52 1   
    43    21    53 1   
    44    21    54 1   
    45    22    55 1   
    46    22    56 1   
    47    22    57 1   
    48    23    58 1   
    49    24    25 ar  
    50    24    59 1   
    51    25    26 ar  
    52    25    60 1   
    53    26    27 1   
    54    27    28 1   
    55    28    29 ar  
    56    28    35 ar  
    57    29    30 1   
    58    29    31 ar  
    59    30    61 1   
    60    30    62 1   
    61    30    63 1   
    62    31    32 ar  
    63    31    64 1   
    64    32    33 1   
    65    32    34 ar  
    66    34    35 ar  
    67    34    65 1   
    68    35    36 1   
    69    36    66 1   
    70    36    67 1   
    71    36    68 1   
@<TRIPOS>SUBSTRUCTURE
     1 XHE         1 TEMP              0 ****  ****    0 ROOT
