@<TRIPOS>MOLECULE
XHF
   30    31     1     0     0
SMALL
abcg2


@<TRIPOS>ATOM
      1 C10         -0.5320    -0.2520    -7.0710 ce         1 XHF      -0.185200
      2 C13          1.1040     0.4640   -10.3930 cc         1 XHF      -0.108300
      3 C17         -2.2290    -1.0370    -9.8090 c3         1 XHF      -0.124400
      4 C01          0.0320    -0.0600    -2.8060 ca         1 XHF       0.185100
      5 C02         -1.1750    -0.4530    -3.3900 ca         1 XHF      -0.077400
      6 C03         -1.3470    -0.5130    -4.7620 ca         1 XHF      -0.033500
      7 C04         -0.3020    -0.1750    -5.6300 ca         1 XHF      -0.069800
      8 C05          0.9160     0.2220    -5.0580 ca         1 XHF      -0.033500
      9 C06          1.0680     0.2750    -3.6860 ca         1 XHF      -0.077400
     10 C11          0.3440     0.0930    -8.0320 cf         1 XHF      -0.088200
     11 C12          0.1580     0.0300    -9.4620 cd         1 XHF      -0.185800
     12 C16         -0.9330    -0.4480   -10.2520 cd         1 XHF       0.287300
     13 N14          0.5650     0.2400   -11.6050 na         1 XHF      -0.012200
     14 N15         -0.6700    -0.3150   -11.5480 nc         1 XHF      -0.522800
     15 O07          0.2410     0.0090    -1.4750 oh         1 XHF      -0.507100
     16 BR08         2.7490     0.8160    -2.9550 br         1 XHF      -0.093100
     17 BR09        -2.6290    -0.9210    -2.2370 br         1 XHF      -0.093100
     18 H1          -1.5120    -0.6180    -7.3450 ha         1 XHF       0.177000
     19 H2          -2.8190    -1.3330   -10.6760 hc         1 XHF       0.051033
     20 H3          -2.0700    -1.9170    -9.1810 hc         1 XHF       0.051033
     21 H4          -2.8110    -0.3230    -9.2220 hc         1 XHF       0.051033
     22 H5          -2.3000    -0.8250    -5.1670 ha         1 XHF       0.132000
     23 H6           1.7560     0.4880    -5.6830 ha         1 XHF       0.132000
     24 H7           1.3160     0.4720    -7.7300 ha         1 XHF       0.164000
     25 H8           2.3660     2.0940    -9.8190 hc         1 XHF       0.055033
     26 H9           3.0500     0.5000    -9.5120 hc         1 XHF       0.055033
     27 H10          2.9780     1.1250   -11.1650 hc         1 XHF       0.055033
     28 H11          0.9870     0.4330   -12.5000 hn         1 XHF       0.372000
     29 H12         -0.5660    -0.2470    -1.0000 ho         1 XHF       0.482000
     30 C18          2.4480     1.0780   -10.2140 c3         1 XHF      -0.035800
@<TRIPOS>BOND
     1     1     7 1   
     2     1    10 2   
     3     1    18 1   
     4     2    11 2   
     5     2    13 1   
     6     2    30 1   
     7     3    12 1   
     8     3    19 1   
     9     3    20 1   
    10     3    21 1   
    11     4     5 ar  
    12     4     9 ar  
    13     4    15 1   
    14     5     6 ar  
    15     5    17 1   
    16     6     7 ar  
    17     6    22 1   
    18     7     8 ar  
    19     8     9 ar  
    20     8    23 1   
    21     9    16 1   
    22    10    11 1   
    23    10    24 1   
    24    11    12 1   
    25    12    14 2   
    26    13    14 1   
    27    13    28 1   
    28    15    29 1   
    29    25    30 1   
    30    26    30 1   
    31    27    30 1   
@<TRIPOS>SUBSTRUCTURE
     1 XHF         1 TEMP              0 ****  ****    0 ROOT
