@<TRIPOS>MOLECULE
XHF
   30    31     1     0     0
SMALL
No Charge or Current Charge


@<TRIPOS>ATOM
      1 C10         -0.4810    -0.0980    -7.0900 ce         1 XHF      -0.185200
      2 C13          0.9900     0.6480   -10.4310 cc         1 XHF      -0.108300
      3 C17         -1.8990    -1.5580    -9.7520 c3         1 XHF      -0.124400
      4 C01          0.0070    -0.1110    -2.7940 ca         1 XHF       0.185100
      5 C02         -1.2680     0.0410    -3.3720 ca         1 XHF      -0.077400
      6 C03         -1.4140     0.0440    -4.7700 ca         1 XHF      -0.033500
      7 C04         -0.2910    -0.1040    -5.6090 ca         1 XHF      -0.069800
      8 C05          0.9840    -0.2600    -5.0250 ca         1 XHF      -0.033500
      9 C06          1.1330    -0.2630    -3.6270 ca         1 XHF      -0.077400
     10 C11          0.4550    -0.0660    -8.0800 cf         1 XHF      -0.088200
     11 C12          0.2140    -0.0230    -9.5250 cd         1 XHF      -0.185800
     12 C16         -0.8090    -0.6620   -10.2770 cd         1 XHF       0.287300
     13 N14          0.3880     0.3930   -11.6600 na         1 XHF      -0.012200
     14 N15         -0.7270    -0.4210   -11.5720 nc         1 XHF      -0.522800
     15 O07          0.1490    -0.1140    -1.4340 oh         1 XHF      -0.507100
     16 Br08         2.8890    -0.4790    -2.8810 br         1 XHF      -0.093100
     17 Br09        -2.8290     0.2480    -2.2730 br         1 XHF      -0.093100
     18 H1          -1.5260    -0.1050    -7.3970 ha         1 XHF       0.177000
     19 H2          -2.2720    -2.2340   -10.5300 hc         1 XHF       0.051033
     20 H3          -1.5340    -2.1770    -8.9250 hc         1 XHF       0.051033
     21 H4          -2.7470    -0.9670    -9.3870 hc         1 XHF       0.051033
     22 H5          -2.4050     0.1630    -5.2030 ha         1 XHF       0.132000
     23 H6           1.8660    -0.3860    -5.6460 ha         1 XHF       0.132000
     24 H7           1.5060     0.0060    -7.7960 ha         1 XHF       0.164000
     25 H8           2.0620     2.2180    -9.4160 hc         1 XHF       0.055033
     26 H9           3.0800     0.8700    -9.9570 hc         1 XHF       0.055033
     27 H10          2.4760     2.0540   -11.1310 hc         1 XHF       0.055033
     28 H11          0.7070     0.7480   -12.5610 hn         1 XHF       0.372000
     29 H12         -0.7420     0.0020    -1.0400 ho         1 XHF       0.482000
     30 C18          2.2190     1.4940   -10.2240 c3         1 XHF      -0.035800
@<TRIPOS>BOND
     1     1     7 1   
     2     1    10 2   
     3     1    18 1   
     4     2    11 2   
     5     2    13 1   
     6     2    30 1   
     7     3    12 1   
     8     3    19 1   
     9     3    20 1   
    10     3    21 1   
    11     4     5 ar  
    12     4     9 ar  
    13     4    15 1   
    14     5     6 ar  
    15     5    17 1   
    16     6     7 ar  
    17     6    22 1   
    18     7     8 ar  
    19     8     9 ar  
    20     8    23 1   
    21     9    16 1   
    22    10    11 1   
    23    10    24 1   
    24    11    12 1   
    25    12    14 2   
    26    13    14 1   
    27    13    28 1   
    28    15    29 1   
    29    25    30 1   
    30    26    30 1   
    31    27    30 1   
@<TRIPOS>SUBSTRUCTURE
     1 XHF         1 TEMP              0 ****  ****    0 ROOT
