@<TRIPOS>MOLECULE
XHG
   18    18     1     0     0
SMALL
No Charge or Current Charge


@<TRIPOS>ATOM
      1 N01        -48.6350    -5.4540    -3.2110 n8         1 XHG      -0.979200
      2 C02        -49.5060    -5.0070    -4.3300 c3         1 XHG       0.134800
      3 C03        -49.3140    -3.4970    -4.7150 c5         1 XHG       0.169300
      4 C04        -50.2200    -3.0040    -5.8710 c5         1 XHG      -0.111400
      5 C05        -51.5830    -2.8000    -5.1440 c5         1 XHG      -0.114400
      6 C06        -51.1660    -2.5320    -3.6640 c5         1 XHG       0.152600
      7 O07        -49.7240    -2.6140    -3.6480 os         1 XHG      -0.442000
      8 H1         -48.7410    -6.4680    -3.0870 hn         1 XHG       0.389500
      9 H012       -47.6510    -5.3440    -3.4830 hn         1 XHG       0.389500
     10 H022       -49.2720    -5.6220    -5.2100 h1         1 XHG       0.028700
     11 H021       -50.5520    -5.2000    -4.0560 h1         1 XHG       0.028700
     12 H031       -48.2530    -3.3250    -4.9420 h1         1 XHG       0.056700
     13 H042       -49.8430    -2.0600    -6.2810 hc         1 XHG       0.053200
     14 H041       -50.2820    -3.7200    -6.6990 hc         1 XHG       0.053200
     15 H051       -52.1560    -1.9690    -5.5700 hc         1 XHG       0.052700
     16 H052       -52.2140    -3.6940    -5.2130 hc         1 XHG       0.052700
     17 H061       -51.4780    -1.5390    -3.3120 h1         1 XHG       0.042200
     18 H062       -51.5800    -3.2910    -2.9860 h1         1 XHG       0.042200
@<TRIPOS>BOND
     1     1     2 1   
     2     1     8 1   
     3     1     9 1   
     4     2     3 1   
     5     2    10 1   
     6     2    11 1   
     7     3     4 1   
     8     3     7 1   
     9     3    12 1   
    10     4     5 1   
    11     4    13 1   
    12     4    14 1   
    13     5     6 1   
    14     5    15 1   
    15     5    16 1   
    16     6     7 1   
    17     6    17 1   
    18     6    18 1   
@<TRIPOS>SUBSTRUCTURE
     1 XHG         1 TEMP              0 ****  ****    0 ROOT
