@<TRIPOS>MOLECULE
XHG
   18    18     1     0     0
SMALL
abcg2


@<TRIPOS>ATOM
      1 N01        -48.6070    -5.5250    -3.3290 n8         1 XHG      -0.979200
      2 C02        -49.3830    -5.0760    -4.4740 c3         1 XHG       0.134800
      3 C03        -49.3990    -3.5570    -4.5850 c5         1 XHG       0.169300
      4 C04        -50.2740    -3.0730    -5.7420 c5         1 XHG      -0.111400
      5 C05        -51.6240    -2.8650    -5.0630 c5         1 XHG      -0.114400
      6 C06        -51.1970    -2.3550    -3.6940 c5         1 XHG       0.152600
      7 O07        -49.9450    -2.9610    -3.4140 os         1 XHG      -0.442000
      8 H1         -48.6770    -6.5310    -3.2510 hn         1 XHG       0.389500
      9 H012       -47.6260    -5.3320    -3.4920 hn         1 XHG       0.389500
     10 H022       -49.0190    -5.4700    -5.4330 h1         1 XHG       0.028700
     11 H021       -50.4100    -5.4380    -4.3610 h1         1 XHG       0.028700
     12 H031       -48.3650    -3.2060    -4.6980 h1         1 XHG       0.056700
     13 H042       -49.9000    -2.1270    -6.1390 hc         1 XHG       0.053200
     14 H041       -50.3100    -3.7840    -6.5670 hc         1 XHG       0.053200
     15 H051       -52.2650    -2.1570    -5.5870 hc         1 XHG       0.052700
     16 H052       -52.1680    -3.8080    -4.9800 hc         1 XHG       0.052700
     17 H061       -51.0930    -1.2630    -3.7060 h1         1 XHG       0.042200
     18 H062       -51.9090    -2.6110    -2.9060 h1         1 XHG       0.042200
@<TRIPOS>BOND
     1     1     2 1   
     2     1     8 1   
     3     1     9 1   
     4     2     3 1   
     5     2    10 1   
     6     2    11 1   
     7     3     4 1   
     8     3     7 1   
     9     3    12 1   
    10     4     5 1   
    11     4    13 1   
    12     4    14 1   
    13     5     6 1   
    14     5    15 1   
    15     5    16 1   
    16     6     7 1   
    17     6    17 1   
    18     6    18 1   
@<TRIPOS>SUBSTRUCTURE
     1 XHG         1 TEMP              0 ****  ****    0 ROOT
