@<TRIPOS>MOLECULE
XHJ
   15    15     1     0     0
SMALL
abcg2


@<TRIPOS>ATOM
      1 N01        -30.7410    24.7050    -6.6480 n8         1 XHJ      -1.020200
      2 C02        -31.0580    23.2970    -6.6540 c5         1 XHJ       0.362700
      3 C03        -32.3230    22.9730    -7.4850 c5         1 XHJ      -0.114400
      4 C04        -33.1320    22.0660    -6.5500 c5         1 XHJ       0.107800
      5 N05        -32.1350    21.6850    -5.5480 n7         1 XHJ      -0.632200
      6 N06        -31.3730    22.8580    -5.2960 n7         1 XHJ      -0.581200
      7 H012       -29.8000    24.8490    -6.3050 hn         1 XHJ       0.408500
      8 H011       -30.7520    25.0610    -7.5940 hn         1 XHJ       0.408500
      9 H021       -30.2310    22.6690    -7.0090 h2         1 XHJ       0.058700
     10 H031       -32.8720    23.8850    -7.7270 hc         1 XHJ       0.056200
     11 H032       -32.0660    22.4800    -8.4220 hc         1 XHJ       0.056200
     12 H041       -33.9740    22.6200    -6.1150 h1         1 XHJ       0.044200
     13 H042       -33.5350    21.1830    -7.0480 h1         1 XHJ       0.044200
     14 H051       -32.5500    21.3710    -4.6810 hn         1 XHJ       0.420000
     15 H061       -31.9830    23.5850    -4.9120 hn         1 XHJ       0.382000
@<TRIPOS>BOND
     1     1     2 1   
     2     1     7 1   
     3     1     8 1   
     4     2     3 1   
     5     2     6 1   
     6     2     9 1   
     7     3     4 1   
     8     3    10 1   
     9     3    11 1   
    10     4     5 1   
    11     4    12 1   
    12     4    13 1   
    13     5     6 1   
    14     5    14 1   
    15     6    15 1   
@<TRIPOS>SUBSTRUCTURE
     1 XHJ         1 TEMP              0 ****  ****    0 ROOT
