@<TRIPOS>MOLECULE
XHJ
   15    15     1     0     0
SMALL
No Charge or Current Charge


@<TRIPOS>ATOM
      1 N01        -30.7190    24.6690    -6.5420 n8         1 XHJ      -1.020200
      2 C02        -31.0270    23.2710    -6.6880 c5         1 XHJ       0.362700
      3 C03        -32.3190    22.9820    -7.5020 c5         1 XHJ      -0.114400
      4 C04        -33.1140    22.0510    -6.5420 c5         1 XHJ       0.107800
      5 N05        -32.1170    21.6930    -5.5090 n7         1 XHJ      -0.632200
      6 N06        -31.4050    22.9480    -5.3300 n7         1 XHJ      -0.581200
      7 H012       -29.7140    24.7520    -6.3600 hn         1 XHJ       0.408500
      8 H011       -30.8470    25.1220    -7.4520 hn         1 XHJ       0.408500
      9 H021       -30.2010    22.6350    -7.0460 h2         1 XHJ       0.058700
     10 H031       -32.8920    23.8850    -7.7420 hc         1 XHJ       0.056200
     11 H032       -32.0830    22.4830    -8.4480 hc         1 XHJ       0.056200
     12 H041       -33.9550    22.5960    -6.0890 h1         1 XHJ       0.044200
     13 H042       -33.5180    21.1630    -7.0470 h1         1 XHJ       0.044200
     14 H051       -32.5690    21.3350    -4.6470 hn         1 XHJ       0.420000
     15 H061       -32.0450    23.7020    -5.0480 hn         1 XHJ       0.382000
@<TRIPOS>BOND
     1     1     2 1   
     2     1     7 1   
     3     1     8 1   
     4     2     3 1   
     5     2     6 1   
     6     2     9 1   
     7     3     4 1   
     8     3    10 1   
     9     3    11 1   
    10     4     5 1   
    11     4    12 1   
    12     4    13 1   
    13     5     6 1   
    14     5    14 1   
    15     6    15 1   
@<TRIPOS>SUBSTRUCTURE
     1 XHJ         1 TEMP              0 ****  ****    0 ROOT
