@<TRIPOS>MOLECULE
XHM
   56    60     1     0     0
SMALL
abcg2


@<TRIPOS>ATOM
      1 C1          -2.1380     8.2780   -52.4320 cp         1 XHM       0.034000
      2 C2          -1.8960     7.0250   -53.0620 ca         1 XHM      -0.042000
      3 C3          -2.5160     5.8600   -52.6460 ca         1 XHM       0.009000
      4 C4          -3.3840     5.9400   -51.5610 ca         1 XHM      -0.241900
      5 C5          -3.5890     7.1720   -50.9160 ca         1 XHM      -0.016200
      6 C6          -2.9850     8.3550   -51.3530 ca         1 XHM      -0.111000
      7 C11         -6.3230     7.9440   -48.7160 ca         1 XHM      -0.068500
      8 C12         -6.8020     8.8360   -47.7790 ca         1 XHM      -0.162000
      9 C15         -4.0840     8.6490   -48.2420 ca         1 XHM      -0.068500
     10 C17         -5.5040    11.4790   -45.4800 c6         1 XHM       0.199800
     11 C18         -6.2310    12.6340   -44.8180 c6         1 XHM       0.154300
     12 C21         -7.5070    10.1540   -45.2460 c6         1 XHM       0.199800
     13 C23         -0.9750     6.9700   -54.1480 cg         1 XHM       0.331000
     14 C27          0.1360    11.2740   -52.8000 ca         1 XHM      -0.131000
     15 C30         -1.8860    10.0340   -54.1580 ca         1 XHM       0.195000
     16 N7          -4.4630     6.9290   -49.9090 na         1 XHM       0.180800
     17 N8          -4.8340     5.6370   -49.8780 nc         1 XHM      -0.501100
     18 C9          -4.2100     5.0290   -50.8490 cd         1 XHM       0.362800
     19 C10         -4.9570     7.8440   -48.9550 ca         1 XHM      -0.029200
     20 C13         -5.9380     9.6710   -47.0480 ca         1 XHM       0.312000
     21 C14         -4.5640     9.5500   -47.3050 ca         1 XHM      -0.162000
     22 N16         -6.4410    10.5900   -46.1390 nh         1 XHM      -0.788400
     23 N19         -7.2320    12.1600   -43.8880 n3         1 XHM      -0.710600
     24 C20         -8.1910    11.3400   -44.5960 c6         1 XHM       0.154300
     25 C22         -7.8720    13.2530   -43.1930 c3         1 XHM       0.150100
     26 N24         -0.2190     6.9200   -55.0170 n1         1 XHM      -0.458000
     27 C25         -1.4750     9.4980   -52.9470 cp         1 XHM      -0.102000
     28 C26         -0.4390    10.1320   -52.2500 ca         1 XHM      -0.026300
     29 C28         -0.3010    11.7870   -54.0140 ca         1 XHM      -0.072000
     30 C29         -1.3260    11.1660   -54.7110 ca         1 XHM      -0.154000
     31 H1          -2.3280     4.9210   -53.1500 ha         1 XHM       0.133000
     32 H2          -3.1760     9.3050   -50.8730 ha         1 XHM       0.136000
     33 H3          -7.0180     7.3280   -49.2730 ha         1 XHM       0.126500
     34 H4          -7.8720     8.9010   -47.6410 ha         1 XHM       0.119500
     35 H5          -3.0150     8.5620   -48.3900 ha         1 XHM       0.126500
     36 H6          -4.8980    10.9470   -44.7300 h1         1 XHM       0.046450
     37 H7          -4.8190    11.9000   -46.2160 h1         1 XHM       0.046450
     38 H8          -5.4960    13.2400   -44.2830 h1         1 XHM       0.041450
     39 H9          -6.6750    13.2750   -45.5990 h1         1 XHM       0.041450
     40 H10         -8.2570     9.5880   -45.7940 h1         1 XHM       0.046450
     41 H11         -7.1040     9.4940   -44.4640 h1         1 XHM       0.046450
     42 H12          0.9430    11.7660   -52.2700 ha         1 XHM       0.118000
     43 H13          0.2520     8.5190   -50.9950 hc         1 XHM       0.047367
     44 H14          0.9690    10.0900   -50.6350 hc         1 XHM       0.047367
     45 H15         -0.6840     9.7340   -50.1460 hc         1 XHM       0.047367
     46 H16         -4.3500     3.9730   -51.0210 h4         1 XHM       0.055800
     47 H17         -3.8420    10.1380   -46.7580 ha         1 XHM       0.119500
     48 H19         -8.7330    11.9160   -45.3660 h1         1 XHM       0.041450
     49 H20         -8.9370    10.9630   -43.8930 h1         1 XHM       0.041450
     50 H21         -8.5980    12.8670   -42.4750 h1         1 XHM       0.033033
     51 H22         -7.1300    13.8290   -42.6380 h1         1 XHM       0.033033
     52 H23         -8.3990    13.9460   -43.8670 h1         1 XHM       0.033033
     53 H24          0.1620    12.6750   -54.4220 ha         1 XHM       0.119000
     54 H25         -1.6810    11.5500   -55.6580 ha         1 XHM       0.136000
     55 F31         -2.8780     9.4120   -54.8170 f          1 XHM      -0.172000
     56 C32          0.0510     9.5890   -50.9390 c3         1 XHM      -0.051800
@<TRIPOS>BOND
     1     1     2 ar  
     2     1     6 ar  
     3     1    27 1   
     4     2     3 ar  
     5     2    13 1   
     6     3     4 ar  
     7     3    31 1   
     8     4     5 ar  
     9     4    18 1   
    10     5     6 ar  
    11     5    16 1   
    12     6    32 1   
    13     7     8 ar  
    14     7    19 ar  
    15     7    33 1   
    16     8    20 ar  
    17     8    34 1   
    18     9    19 ar  
    19     9    21 ar  
    20     9    35 1   
    21    10    11 1   
    22    10    22 1   
    23    10    36 1   
    24    10    37 1   
    25    11    23 1   
    26    11    38 1   
    27    11    39 1   
    28    12    22 1   
    29    12    24 1   
    30    12    40 1   
    31    12    41 1   
    32    13    26 3   
    33    14    28 ar  
    34    14    29 ar  
    35    14    42 1   
    36    15    27 ar  
    37    15    30 ar  
    38    15    55 1   
    39    16    17 1   
    40    16    19 1   
    41    17    18 2   
    42    18    46 1   
    43    20    21 ar  
    44    20    22 1   
    45    21    47 1   
    46    23    24 1   
    47    23    25 1   
    48    24    48 1   
    49    24    49 1   
    50    25    50 1   
    51    25    51 1   
    52    25    52 1   
    53    27    28 ar  
    54    28    56 1   
    55    29    30 ar  
    56    29    53 1   
    57    30    54 1   
    58    43    56 1   
    59    44    56 1   
    60    45    56 1   
@<TRIPOS>SUBSTRUCTURE
     1 XHM         1 TEMP              0 ****  ****    0 ROOT
