@<TRIPOS>MOLECULE
XHM
   56    60     1     0     0
SMALL
No Charge or Current Charge


@<TRIPOS>ATOM
      1 C1          -2.1520     8.2550   -52.5180 cp         1 XHM       0.034000
      2 C2          -1.9150     7.0030   -53.1740 ca         1 XHM      -0.042000
      3 C3          -2.5500     5.8210   -52.7220 ca         1 XHM       0.009000
      4 C4          -3.4050     5.9240   -51.6180 ca         1 XHM      -0.241900
      5 C5          -3.6300     7.1000   -50.9840 ca         1 XHM      -0.016200
      6 C6          -3.0300     8.2920   -51.4020 ca         1 XHM      -0.111000
      7 C11         -6.3280     7.9840   -48.8240 ca         1 XHM      -0.068500
      8 C12         -6.7720     8.8990   -47.8520 ca         1 XHM      -0.162000
      9 C15         -4.0290     8.4120   -48.1650 ca         1 XHM      -0.068500
     10 C17         -5.4690    11.6290   -45.5810 c6         1 XHM       0.199800
     11 C18         -6.3070    12.7950   -44.9590 c6         1 XHM       0.154300
     12 C21         -7.3300    10.0570   -45.0390 c6         1 XHM       0.199800
     13 C23         -1.0180     6.9050   -54.2930 cg         1 XHM       0.331000
     14 C27          0.1350    11.3190   -52.6520 ca         1 XHM      -0.131000
     15 C30         -1.9080    10.1500   -54.1700 ca         1 XHM       0.195000
     16 N7          -4.5070     6.8370   -49.9520 na         1 XHM       0.180800
     17 N8          -4.8650     5.4900   -49.8830 nc         1 XHM      -0.501100
     18 C9          -4.1960     4.9360   -50.9090 cd         1 XHM       0.362800
     19 C10         -4.9520     7.7370   -48.9850 ca         1 XHM      -0.029200
     20 C13         -5.8550     9.5780   -47.0290 ca         1 XHM       0.312000
     21 C14         -4.4780     9.3270   -47.1960 ca         1 XHM      -0.162000
     22 N16         -6.3250    10.4970   -46.0610 nh         1 XHM      -0.788400
     23 N19         -7.2430    12.3310   -43.8900 n3         1 XHM      -0.710600
     24 C20         -8.1300    11.2540   -44.4280 c6         1 XHM       0.154300
     25 C22         -8.0020    13.4410   -43.2750 c3         1 XHM       0.150100
     26 N24         -0.2890     6.8130   -55.2010 n1         1 XHM      -0.458000
     27 C25         -1.4960     9.5190   -52.9690 cp         1 XHM      -0.102000
     28 C26         -0.4590    10.1210   -52.2060 ca         1 XHM      -0.026300
     29 C28         -0.2860    11.9270   -53.8460 ca         1 XHM      -0.072000
     30 C29         -1.3090    11.3410   -54.6060 ca         1 XHM      -0.154000
     31 H1          -2.3800     4.8630   -53.2100 ha         1 XHM       0.133000
     32 H2          -3.2310     9.2290   -50.8870 ha         1 XHM       0.136000
     33 H3          -7.0520     7.4710   -49.4540 ha         1 XHM       0.126500
     34 H4          -7.8360     9.0900   -47.7490 ha         1 XHM       0.119500
     35 H5          -2.9620     8.2250   -48.2760 ha         1 XHM       0.126500
     36 H6          -4.7610    11.2630   -44.8220 h1         1 XHM       0.046450
     37 H7          -4.8770    12.0380   -46.4130 h1         1 XHM       0.046450
     38 H8          -5.6120    13.5460   -44.5570 h1         1 XHM       0.041450
     39 H9          -6.8710    13.2830   -45.7670 h1         1 XHM       0.041450
     40 H10         -8.0500     9.3500   -45.4760 h1         1 XHM       0.046450
     41 H11         -6.8160     9.5280   -44.2240 h1         1 XHM       0.046450
     42 H12          0.9290    11.7840   -52.0720 ha         1 XHM       0.118000
     43 H13          0.2150     8.4170   -51.0300 hc         1 XHM       0.047367
     44 H14          0.9810     9.9400   -50.5730 hc         1 XHM       0.047367
     45 H15         -0.6940     9.6240   -50.1030 hc         1 XHM       0.047367
     46 H16         -4.2980     3.8740   -51.0920 h4         1 XHM       0.055800
     47 H17         -3.7470     9.8280   -46.5690 ha         1 XHM       0.119500
     48 H19         -8.7880    11.6640   -45.2090 h1         1 XHM       0.041450
     49 H20         -8.7830    10.8660   -43.6330 h1         1 XHM       0.041450
     50 H21         -8.6430    13.0690   -42.4650 h1         1 XHM       0.033033
     51 H22         -7.3190    14.1880   -42.8500 h1         1 XHM       0.033033
     52 H23         -8.6400    13.9400   -44.0170 h1         1 XHM       0.033033
     53 H24          0.1810    12.8520   -54.1810 ha         1 XHM       0.119000
     54 H25         -1.6410    11.8070   -55.5300 ha         1 XHM       0.136000
     55 F31         -2.9000     9.6120   -54.9140 f          1 XHM      -0.172000
     56 C32          0.0380     9.4920   -50.9080 c3         1 XHM      -0.051800
@<TRIPOS>BOND
     1     1     2 ar  
     2     1     6 ar  
     3     1    27 1   
     4     2     3 ar  
     5     2    13 1   
     6     3     4 ar  
     7     3    31 1   
     8     4     5 ar  
     9     4    18 1   
    10     5     6 ar  
    11     5    16 1   
    12     6    32 1   
    13     7     8 ar  
    14     7    19 ar  
    15     7    33 1   
    16     8    20 ar  
    17     8    34 1   
    18     9    19 ar  
    19     9    21 ar  
    20     9    35 1   
    21    10    11 1   
    22    10    22 1   
    23    10    36 1   
    24    10    37 1   
    25    11    23 1   
    26    11    38 1   
    27    11    39 1   
    28    12    22 1   
    29    12    24 1   
    30    12    40 1   
    31    12    41 1   
    32    13    26 3   
    33    14    28 ar  
    34    14    29 ar  
    35    14    42 1   
    36    15    27 ar  
    37    15    30 ar  
    38    15    55 1   
    39    16    17 1   
    40    16    19 1   
    41    17    18 2   
    42    18    46 1   
    43    20    21 ar  
    44    20    22 1   
    45    21    47 1   
    46    23    24 1   
    47    23    25 1   
    48    24    48 1   
    49    24    49 1   
    50    25    50 1   
    51    25    51 1   
    52    25    52 1   
    53    27    28 ar  
    54    28    56 1   
    55    29    30 ar  
    56    29    53 1   
    57    30    54 1   
    58    43    56 1   
    59    44    56 1   
    60    45    56 1   
@<TRIPOS>SUBSTRUCTURE
     1 XHM         1 TEMP              0 ****  ****    0 ROOT
