@<TRIPOS>MOLECULE
XHN
   78    81     1     0     0
SMALL
abcg2


@<TRIPOS>ATOM
      1 O          -66.2770    28.5700     4.4650 o          1 XHN      -0.607100
      2 N          -64.3970    29.9080     5.8640 nu         1 XHN      -0.811200
      3 C          -66.6790    29.3980     5.2720 c          1 XHN       0.589100
      4 CBI        -70.3320    29.4380     5.1480 c6         1 XHN      -0.088900
      5 CBJ        -71.4960    28.5540     4.7130 c6         1 XHN      -0.091400
      6 CBK        -71.6380    27.3470     5.6260 c6         1 XHN       0.169300
      7 OBN        -72.7330    26.5790     5.1730 oh         1 XHN      -0.656000
      8 CBL        -70.3390    26.5490     5.6480 c6         1 XHN      -0.091400
      9 CBM        -69.1710    27.4200     6.0970 c6         1 XHN      -0.088900
     10 CBH        -69.0260    28.6510     5.2020 c6         1 XHN       0.108700
     11 NBF        -67.9530    29.5150     5.6580 ns         1 XHN      -0.497900
     12 CA         -65.7350    30.4180     5.8900 c3         1 XHN       0.138800
     13 CAV        -63.3340    30.6050     6.3110 cc         1 XHN       0.301000
     14 CAW        -63.4470    31.8500     6.8950 cd         1 XHN      -0.462200
     15 CAX        -62.3200    32.5970     7.3450 c          1 XHN       0.576200
     16 OBA        -62.3700    33.7160     7.8580 o          1 XHN      -0.582000
     17 NAY        -61.0800    31.9860     7.1610 n          1 XHN      -0.281000
     18 CBC        -59.8940    32.7070     7.5910 c3         1 XHN       0.082300
     19 CAZ        -60.9670    30.7590     6.6000 cd         1 XHN       0.004600
     20 CAU        -62.0250    30.0290     6.1730 cc         1 XHN      -0.169200
     21 CAA        -61.8100    28.6990     5.5630 ca         1 XHN      -0.079800
     22 CAF        -61.2290    28.5840     4.3020 ca         1 XHN      -0.058000
     23 CAE        -60.9750    27.3520     3.7100 ca         1 XHN      -0.145300
     24 CAH        -60.3480    27.2480     2.3220 c3         1 XHN       0.237300
     25 CAI        -61.4020    26.7640     1.3290 c3         1 XHN      -0.100100
     26 CAJ        -59.1560    26.2900     2.3400 c3         1 XHN      -0.100100
     27 OAK        -59.9320    28.5170     1.8570 oh         1 XHN      -0.655000
     28 CAD        -61.3450    26.2130     4.4180 ca         1 XHN      -0.062000
     29 CAC        -61.9320    26.2920     5.6720 ca         1 XHN      -0.188000
     30 CAB        -62.1610    27.5340     6.2490 ca         1 XHN       0.149100
     31 OAG        -62.7190    27.7020     7.4780 os         1 XHN      -0.238200
     32 CAL        -62.9930    26.5970     8.2490 ca         1 XHN       0.066100
     33 CAM        -64.2570    26.0170     8.1680 ca         1 XHN      -0.043800
     34 CAR        -65.2930    26.5540     7.2290 c3         1 XHN      -0.049800
     35 CAN        -64.5360    24.9320     8.9930 ca         1 XHN      -0.155000
     36 CAO        -63.5620    24.4710     9.8540 ca         1 XHN       0.179000
     37 FAT        -63.8440    23.4200    10.6430 f          1 XHN      -0.177000
     38 CAP        -62.3120    25.0480     9.9360 ca         1 XHN      -0.155000
     39 CAQ        -62.0080    26.1340     9.1200 ca         1 XHN      -0.043800
     40 CAS        -60.6630    26.7940     9.1830 c3         1 XHN      -0.049800
     41 H1         -64.2370    29.1080     5.2700 hn         1 XHN       0.520000
     42 H2         -70.2280    30.2830     4.4650 hc         1 XHN       0.047700
     43 H3         -70.5440    29.8550     6.1390 hc         1 XHN       0.047700
     44 H4         -72.4200    29.1370     4.7140 hc         1 XHN       0.054700
     45 H5         -71.3360    28.2100     3.6860 hc         1 XHN       0.054700
     46 H6         -71.8260    27.7160     6.6480 h1         1 XHN       0.026700
     47 H7         -72.8160    25.8090     5.7440 ho         1 XHN       0.444000
     48 H8         -70.4350    25.6890     6.3170 hc         1 XHN       0.054700
     49 H9         -70.1440    26.1540     4.6450 hc         1 XHN       0.054700
     50 H10        -68.2450    26.8410     6.0860 hc         1 XHN       0.047700
     51 H11        -69.3270    27.7500     7.1300 hc         1 XHN       0.047700
     52 H12        -68.7780    28.3200     4.1900 h1         1 XHN       0.083700
     53 H13        -68.1730    30.1750     6.3900 hn         1 XHN       0.314500
     54 H14        -65.8260    31.3540     5.3220 h1         1 XHN       0.060700
     55 H15        -66.0420    30.6450     6.9150 h1         1 XHN       0.060700
     56 H16        -64.4090    32.3280     7.0170 ha         1 XHN       0.201000
     57 H17        -59.9300    32.9130     8.6590 h1         1 XHN       0.050367
     58 H18        -59.0170    32.1020     7.3810 h1         1 XHN       0.050367
     59 H19        -59.8000    33.6520     7.0580 h1         1 XHN       0.050367
     60 H20        -59.9610    30.3700     6.5130 h4         1 XHN       0.195000
     61 H21        -60.9800    29.4990     3.7810 ha         1 XHN       0.129000
     62 H22        -61.7960    25.7920     1.6270 hc         1 XHN       0.044700
     63 H23        -62.2390    27.4620     1.2780 hc         1 XHN       0.044700
     64 H24        -60.9740    26.6610     0.3310 hc         1 XHN       0.044700
     65 H25        -58.3940    26.6230     3.0490 hc         1 XHN       0.044700
     66 H26        -59.4490    25.2790     2.6230 hc         1 XHN       0.044700
     67 H27        -58.7030    26.2370     1.3490 hc         1 XHN       0.044700
     68 H28        -59.1660    28.7980     2.3690 ho         1 XHN       0.441000
     69 H29        -61.1820    25.2290     3.9970 ha         1 XHN       0.113000
     70 H30        -62.1970    25.3800     6.1910 ha         1 XHN       0.129000
     71 H31        -64.9510    26.5410     6.1940 hc         1 XHN       0.052033
     72 H32        -66.2060    25.9630     7.2840 hc         1 XHN       0.052033
     73 H33        -65.5500    27.5860     7.4700 hc         1 XHN       0.052033
     74 H34        -65.5070    24.4540     8.9590 ha         1 XHN       0.134500
     75 H35        -61.5750    24.6610    10.6290 ha         1 XHN       0.134500
     76 H36        -60.7500    27.8630     9.3770 hc         1 XHN       0.052033
     77 H37        -60.0570    26.3570     9.9740 hc         1 XHN       0.052033
     78 H38        -60.1140    26.6810     8.2460 hc         1 XHN       0.052033
@<TRIPOS>BOND
     1     1     3 2   
     2     2    12 1   
     3     2    13 1   
     4     2    41 1   
     5     3    11 1   
     6     3    12 1   
     7     4     5 1   
     8     4    10 1   
     9     4    42 1   
    10     4    43 1   
    11     5     6 1   
    12     5    44 1   
    13     5    45 1   
    14     6     7 1   
    15     6     8 1   
    16     6    46 1   
    17     7    47 1   
    18     8     9 1   
    19     8    48 1   
    20     8    49 1   
    21     9    10 1   
    22     9    50 1   
    23     9    51 1   
    24    10    11 1   
    25    10    52 1   
    26    11    53 1   
    27    12    54 1   
    28    12    55 1   
    29    13    14 2   
    30    13    20 1   
    31    14    15 1   
    32    14    56 1   
    33    15    16 2   
    34    15    17 1   
    35    17    18 1   
    36    17    19 1   
    37    18    57 1   
    38    18    58 1   
    39    18    59 1   
    40    19    20 2   
    41    19    60 1   
    42    20    21 1   
    43    21    22 ar  
    44    21    30 ar  
    45    22    23 ar  
    46    22    61 1   
    47    23    24 1   
    48    23    28 ar  
    49    24    25 1   
    50    24    26 1   
    51    24    27 1   
    52    25    62 1   
    53    25    63 1   
    54    25    64 1   
    55    26    65 1   
    56    26    66 1   
    57    26    67 1   
    58    27    68 1   
    59    28    29 ar  
    60    28    69 1   
    61    29    30 ar  
    62    29    70 1   
    63    30    31 1   
    64    31    32 1   
    65    32    33 ar  
    66    32    39 ar  
    67    33    34 1   
    68    33    35 ar  
    69    34    71 1   
    70    34    72 1   
    71    34    73 1   
    72    35    36 ar  
    73    35    74 1   
    74    36    37 1   
    75    36    38 ar  
    76    38    39 ar  
    77    38    75 1   
    78    39    40 1   
    79    40    76 1   
    80    40    77 1   
    81    40    78 1   
@<TRIPOS>SUBSTRUCTURE
     1 XHN         1 TEMP              0 ****  ****    0 ROOT
