@<TRIPOS>MOLECULE
XHN
   78    81     1     0     0
SMALL
No Charge or Current Charge


@<TRIPOS>ATOM
      1 O          -66.5790    28.3700     4.6520 o          1 XHN      -0.607100
      2 N          -64.4660    29.9370     5.7470 nu         1 XHN      -0.811200
      3 C          -66.9060    29.2840     5.4020 c          1 XHN       0.589100
      4 CBI        -70.6760    29.4380     5.5270 c6         1 XHN      -0.088900
      5 CBJ        -71.9060    28.5760     5.1440 c6         1 XHN      -0.091400
      6 CBK        -71.9720    27.2820     5.9930 c6         1 XHN       0.169300
      7 OBN        -73.0760    26.4800     5.5690 oh         1 XHN      -0.656000
      8 CBL        -70.6530    26.4790     5.8650 c6         1 XHN      -0.091400
      9 CBM        -69.4250    27.3490     6.2410 c6         1 XHN      -0.088900
     10 CBH        -69.3550    28.6390     5.3810 c6         1 XHN       0.108700
     11 NBF        -68.2180    29.4720     5.7890 ns         1 XHN      -0.497900
     12 CA         -65.8870    30.3070     5.9950 c3         1 XHN       0.138800
     13 CAV        -63.3450    30.6040     6.1550 cc         1 XHN       0.301000
     14 CAW        -63.3920    31.8310     6.7490 cd         1 XHN      -0.462200
     15 CAX        -62.1950    32.5840     7.1220 c          1 XHN       0.576200
     16 OBA        -62.2690    33.6810     7.6560 o          1 XHN      -0.582000
     17 NAY        -60.9690    31.9570     6.8210 n          1 XHN      -0.281000
     18 CBC        -59.7190    32.6610     7.1830 c3         1 XHN       0.082300
     19 CAZ        -60.9200    30.7040     6.2140 cd         1 XHN       0.004600
     20 CAU        -62.0640    30.0160     5.8480 cc         1 XHN      -0.169200
     21 CAA        -61.8070    28.6580     5.3190 ca         1 XHN      -0.079800
     22 CAF        -60.8120    28.4880     4.3300 ca         1 XHN      -0.058000
     23 CAE        -60.5050    27.2210     3.7810 ca         1 XHN      -0.145300
     24 CAH        -59.4250    27.1190     2.6810 c3         1 XHN       0.237300
     25 CAI        -59.9030    27.8340     1.3970 c3         1 XHN      -0.100100
     26 CAJ        -58.9950    25.6700     2.3470 c3         1 XHN      -0.100100
     27 OAK        -58.2560    27.7950     3.1410 oh         1 XHN      -0.655000
     28 CAD        -61.2210    26.0970     4.2500 ca         1 XHN      -0.062000
     29 CAC        -62.1920    26.2420     5.2500 ca         1 XHN      -0.188000
     30 CAB        -62.4820    27.5060     5.7920 ca         1 XHN       0.149100
     31 OAG        -63.3690    27.5980     6.8420 os         1 XHN      -0.238200
     32 CAL        -63.3880    26.6770     7.8680 ca         1 XHN       0.066100
     33 CAM        -64.5450    25.8880     8.0590 ca         1 XHN      -0.043800
     34 CAR        -65.7580    26.0530     7.1530 c3         1 XHN      -0.049800
     35 CAN        -64.5730    24.9420     9.1020 ca         1 XHN      -0.155000
     36 CAO        -63.4620    24.7900     9.9430 ca         1 XHN       0.179000
     37 FAT        -63.4970    23.8800    10.9400 f          1 XHN      -0.177000
     38 CAP        -62.3190    25.5820     9.7640 ca         1 XHN      -0.155000
     39 CAQ        -62.2720    26.5370     8.7300 ca         1 XHN      -0.043800
     40 CAS        -61.0280    27.4080     8.5750 c3         1 XHN      -0.049800
     41 H1         -64.2870    28.9790     5.4400 hn         1 XHN       0.520000
     42 H2         -70.6420    30.3320     4.8900 hc         1 XHN       0.047700
     43 H3         -70.7860    29.7950     6.5610 hc         1 XHN       0.047700
     44 H4         -72.8260    29.1600     5.2860 hc         1 XHN       0.054700
     45 H5         -71.8590    28.3200     4.0760 hc         1 XHN       0.054700
     46 H6         -72.1050    27.5670     7.0480 h1         1 XHN       0.026700
     47 H7         -73.1270    25.7190     6.1890 ho         1 XHN       0.444000
     48 H8         -70.6870    25.5930     6.5140 hc         1 XHN       0.054700
     49 H9         -70.5380    26.1100     4.8360 hc         1 XHN       0.054700
     50 H10        -68.5090    26.7600     6.1040 hc         1 XHN       0.047700
     51 H11        -69.4710    27.6120     7.3070 hc         1 XHN       0.047700
     52 H12        -69.2250    28.3600     4.3230 h1         1 XHN       0.083700
     53 H13        -68.3990    30.2520     6.4100 hn         1 XHN       0.314500
     54 H14        -66.1110    31.2870     5.5550 h1         1 XHN       0.060700
     55 H15        -66.0740    30.3730     7.0750 h1         1 XHN       0.060700
     56 H16        -64.3230    32.3290     6.9750 ha         1 XHN       0.201000
     57 H17        -59.6760    32.8010     8.2710 h1         1 XHN       0.050367
     58 H18        -58.8400    32.0850     6.8660 h1         1 XHN       0.050367
     59 H19        -59.6920    33.6430     6.6930 h1         1 XHN       0.050367
     60 H20        -59.9110    30.3230     6.0860 h4         1 XHN       0.195000
     61 H21        -60.2840    29.3630     3.9570 ha         1 XHN       0.129000
     62 H22        -60.8170    27.3630     1.0140 hc         1 XHN       0.044700
     63 H23        -60.1210    28.8910     1.5860 hc         1 XHN       0.044700
     64 H24        -59.1390    27.7830     0.6120 hc         1 XHN       0.044700
     65 H25        -58.6630    25.1380     3.2470 hc         1 XHN       0.044700
     66 H26        -59.8210    25.1090     1.8950 hc         1 XHN       0.044700
     67 H27        -58.1640    25.6670     1.6300 hc         1 XHN       0.044700
     68 H28        -58.0680    27.4360     4.0340 ho         1 XHN       0.441000
     69 H29        -61.0350    25.1010     3.8580 ha         1 XHN       0.113000
     70 H30        -62.7150    25.3610     5.6140 ha         1 XHN       0.129000
     71 H31        -65.4770    25.9740     6.0960 hc         1 XHN       0.052033
     72 H32        -66.5210    25.2900     7.3470 hc         1 XHN       0.052033
     73 H33        -66.2240    27.0340     7.3050 hc         1 XHN       0.052033
     74 H34        -65.4520    24.3240     9.2630 ha         1 XHN       0.134500
     75 H35        -61.4730    25.4540    10.4350 ha         1 XHN       0.134500
     76 H36        -61.2960    28.4580     8.4090 hc         1 XHN       0.052033
     77 H37        -60.3960    27.3750     9.4710 hc         1 XHN       0.052033
     78 H38        -60.4180    27.0760     7.7280 hc         1 XHN       0.052033
@<TRIPOS>BOND
     1     1     3 2   
     2     2    12 1   
     3     2    13 1   
     4     2    41 1   
     5     3    11 1   
     6     3    12 1   
     7     4     5 1   
     8     4    10 1   
     9     4    42 1   
    10     4    43 1   
    11     5     6 1   
    12     5    44 1   
    13     5    45 1   
    14     6     7 1   
    15     6     8 1   
    16     6    46 1   
    17     7    47 1   
    18     8     9 1   
    19     8    48 1   
    20     8    49 1   
    21     9    10 1   
    22     9    50 1   
    23     9    51 1   
    24    10    11 1   
    25    10    52 1   
    26    11    53 1   
    27    12    54 1   
    28    12    55 1   
    29    13    14 2   
    30    13    20 1   
    31    14    15 1   
    32    14    56 1   
    33    15    16 2   
    34    15    17 1   
    35    17    18 1   
    36    17    19 1   
    37    18    57 1   
    38    18    58 1   
    39    18    59 1   
    40    19    20 2   
    41    19    60 1   
    42    20    21 1   
    43    21    22 ar  
    44    21    30 ar  
    45    22    23 ar  
    46    22    61 1   
    47    23    24 1   
    48    23    28 ar  
    49    24    25 1   
    50    24    26 1   
    51    24    27 1   
    52    25    62 1   
    53    25    63 1   
    54    25    64 1   
    55    26    65 1   
    56    26    66 1   
    57    26    67 1   
    58    27    68 1   
    59    28    29 ar  
    60    28    69 1   
    61    29    30 ar  
    62    29    70 1   
    63    30    31 1   
    64    31    32 1   
    65    32    33 ar  
    66    32    39 ar  
    67    33    34 1   
    68    33    35 ar  
    69    34    71 1   
    70    34    72 1   
    71    34    73 1   
    72    35    36 ar  
    73    35    74 1   
    74    36    37 1   
    75    36    38 ar  
    76    38    39 ar  
    77    38    75 1   
    78    39    40 1   
    79    40    76 1   
    80    40    77 1   
    81    40    78 1   
@<TRIPOS>SUBSTRUCTURE
     1 XHN         1 TEMP              0 ****  ****    0 ROOT
