@<TRIPOS>MOLECULE
XHO
   64    66     1     0     0
SMALL
No Charge or Current Charge


@<TRIPOS>ATOM
      1 C10        136.4330   131.9500   137.4730 c          1 XHO       0.607100
      2 C15        137.8800   136.7010   138.8310 c6         1 XHO       0.176300
      3 C17        135.5570   136.1140   139.3040 c6         1 XHO       0.176300
      4 C20        135.1030   138.9660   137.5150 c3         1 XHO       0.182300
      5 C21        133.6380   138.4560   137.6860 c3         1 XHO       0.172600
      6 C24        131.2060   136.8610   137.8940 ca         1 XHO      -0.178000
      7 C26        130.0480   134.7690   137.4410 ca         1 XHO      -0.114000
      8 C28        132.3260   135.0960   136.6200 ca         1 XHO       0.123100
      9 C02        134.5270   129.3380   137.2050 ca         1 XHO      -0.069300
     10 C03        134.3500   130.5470   137.9320 ca         1 XHO      -0.046000
     11 C04        133.0520   130.9170   138.3670 ca         1 XHO      -0.069300
     12 C05        131.9440   130.1200   138.0260 ca         1 XHO      -0.112000
     13 C06        132.1170   128.9500   137.2760 ca         1 XHO      -0.112000
     14 C07        133.4020   128.5580   136.8760 ca         1 XHO      -0.112000
     15 C08        132.8250   132.1840   139.1890 c3         1 XHO      -0.049800
     16 C12        137.4410   132.8540   138.2410 c3         1 XHO       0.103800
     17 C14        138.1950   135.1610   138.9130 c6         1 XHO       0.180800
     18 C18        135.7910   134.6030   138.9680 c6         1 XHO       0.180800
     19 C19        136.1040   138.4590   138.6010 c3         1 XHO       0.155800
     20 C23        132.3440   136.3890   137.2000 ca         1 XHO       0.101100
     21 C25        130.0650   136.0510   138.0120 ca         1 XHO      -0.120000
     22 C27        131.1700   134.2900   136.7450 ca         1 XHO      -0.175000
     23 C30        133.5280   133.3580   135.3310 c3         1 XHO       0.143900
     24 N09        135.4400   131.3950   138.2710 ns         1 XHO      -0.170000
     25 N13        137.1150   134.3140   138.3250 n3         1 XHO      -0.714600
     26 N16        136.4480   137.0130   138.5130 n3         1 XHO      -0.697600
     27 O11        136.4960   131.7770   136.2580 o          1 XHO      -0.576100
     28 O22        133.4940   137.1510   137.0810 os         1 XHO      -0.295100
     29 O31        135.6240   138.6040   136.2250 oh         1 XHO      -0.625000
     30 H151       138.1680   137.1620   139.7870 h1         1 XHO       0.033950
     31 H152       138.5240   137.1470   138.0600 h1         1 XHO       0.033950
     32 H171       135.7580   136.2610   140.3750 h1         1 XHO       0.033950
     33 H172       134.4950   136.3450   139.1640 h1         1 XHO       0.033950
     34 H201       135.0680   140.0600   137.5990 h1         1 XHO       0.020700
     35 H211       133.3960   138.4220   138.7560 h1         1 XHO       0.033700
     36 H212       132.9540   139.1680   137.2070 h1         1 XHO       0.033700
     37 H241       131.1890   137.8490   138.3470 ha         1 XHO       0.111000
     38 H261       129.1610   134.1450   137.5370 ha         1 XHO       0.109000
     39 H013       136.1860   129.1650   135.8040 hc         1 XHO       0.047033
     40 H012       136.6840   129.1050   137.5090 hc         1 XHO       0.047033
     41 H011       135.9090   127.7120   136.7670 hc         1 XHO       0.047033
     42 H051       130.9440   130.4060   138.3430 ha         1 XHO       0.114000
     43 H061       131.2560   128.3370   137.0170 ha         1 XHO       0.113000
     44 H071       133.5240   127.6340   136.3140 ha         1 XHO       0.114000
     45 H081       133.4340   132.1820   140.1010 hc         1 XHO       0.047033
     46 H082       133.0820   133.0790   138.6130 hc         1 XHO       0.047033
     47 H083       131.7780   132.2880   139.4980 hc         1 XHO       0.047033
     48 H122       137.5490   132.4380   139.2520 h1         1 XHO       0.049200
     49 H121       138.4110   132.7230   137.7430 h1         1 XHO       0.049200
     50 H141       138.3350   134.8920   139.9700 h1         1 XHO       0.031700
     51 H142       139.1530   134.9700   138.4090 h1         1 XHO       0.031700
     52 H182       134.9920   134.2830   138.2860 h1         1 XHO       0.031700
     53 H181       135.6720   134.0230   139.8940 h1         1 XHO       0.031700
     54 H192       137.0190   139.0550   138.4810 h1         1 XHO       0.026200
     55 H191       135.7120   138.7000   139.5990 h1         1 XHO       0.026200
     56 H251       129.1920   136.4160   138.5480 ha         1 XHO       0.109000
     57 H271       131.1270   133.2930   136.3160 ha         1 XHO       0.122000
     58 H303       134.5060   133.2200   134.8540 h1         1 XHO       0.045033
     59 H302       133.3990   132.5630   136.0750 h1         1 XHO       0.045033
     60 H301       132.7560   133.2460   134.5590 h1         1 XHO       0.045033
     61 H091       135.4690   131.6730   139.2430 hn         1 XHO       0.146000
     62 H311       135.9310   137.6770   136.3550 ho         1 XHO       0.433000
     63 C01        135.9020   128.8080   136.8010 c3         1 XHO      -0.049800
     64 O29        133.4530   134.6550   135.9460 os         1 XHO      -0.309100
@<TRIPOS>BOND
     1     1    16 1   
     2     1    24 1   
     3     1    27 2   
     4     2    17 1   
     5     2    26 1   
     6     2    30 1   
     7     2    31 1   
     8     3    18 1   
     9     3    26 1   
    10     3    32 1   
    11     3    33 1   
    12     4     5 1   
    13     4    19 1   
    14     4    29 1   
    15     4    34 1   
    16     5    28 1   
    17     5    35 1   
    18     5    36 1   
    19     6    20 ar  
    20     6    21 ar  
    21     6    37 1   
    22     7    21 ar  
    23     7    22 ar  
    24     7    38 1   
    25     8    20 ar  
    26     8    22 ar  
    27     8    64 1   
    28     9    10 ar  
    29     9    14 ar  
    30     9    63 1   
    31    10    11 ar  
    32    10    24 1   
    33    11    12 ar  
    34    11    15 1   
    35    12    13 ar  
    36    12    42 1   
    37    13    14 ar  
    38    13    43 1   
    39    14    44 1   
    40    15    45 1   
    41    15    46 1   
    42    15    47 1   
    43    16    25 1   
    44    16    48 1   
    45    16    49 1   
    46    17    25 1   
    47    17    50 1   
    48    17    51 1   
    49    18    25 1   
    50    18    52 1   
    51    18    53 1   
    52    19    26 1   
    53    19    54 1   
    54    19    55 1   
    55    20    28 1   
    56    21    56 1   
    57    22    57 1   
    58    23    58 1   
    59    23    59 1   
    60    23    60 1   
    61    23    64 1   
    62    24    61 1   
    63    29    62 1   
    64    39    63 1   
    65    40    63 1   
    66    41    63 1   
@<TRIPOS>SUBSTRUCTURE
     1 XHO         1 TEMP              0 ****  ****    0 ROOT
