@<TRIPOS>MOLECULE
XHS
   54    58     1     0     0
SMALL
abcg2


@<TRIPOS>ATOM
      1 C1         -30.3840    16.1120   -22.3960 c3         1 XHS       0.151100
      2 C4         -28.7380    15.7570   -24.0980 c6         1 XHS       0.151800
      3 C5         -27.6520    16.4170   -24.9210 c6         1 XHS       0.215300
      4 C7         -27.1040    17.8090   -23.0070 c6         1 XHS       0.215300
      5 C8         -28.2200    17.1200   -22.2410 c6         1 XHS       0.151800
      6 C11        -23.1760    18.1370   -24.6040 ca         1 XHS      -0.026000
      7 C12        -22.7930    17.2800   -25.6270 ca         1 XHS      -0.206000
      8 C17        -22.4070    14.7340   -28.7810 cc         1 XHS       0.384800
      9 C18        -23.5020    13.8490   -28.5790 ca         1 XHS      -0.295900
     10 C19        -23.9800    12.6810   -29.1710 ca         1 XHS       0.411900
     11 C21        -25.6910    12.5710   -27.6430 cp         1 XHS       0.427500
     12 C23        -24.1870    14.3750   -27.4750 ca         1 XHS       0.015800
     13 C24        -26.8780    11.8120   -27.1800 cp         1 XHS      -0.222500
     14 C27        -27.8150     9.7530   -26.2750 ca         1 XHS      -0.196000
     15 C30        -28.1690    12.3620   -27.2270 ca         1 XHS       0.182100
     16 C32        -29.5260    14.2240   -27.8010 c3         1 XHS       0.146900
     17 N2         -29.2770    16.6850   -23.1270 n3         1 XHS      -0.713600
     18 N6         -26.6060    16.9540   -24.0650 nh         1 XHS      -0.773300
     19 C9         -25.3430    17.1230   -24.5610 ca         1 XHS       0.648900
     20 C10        -24.4420    18.0810   -24.0590 ca         1 XHS      -0.248000
     21 C13        -23.7670    16.3940   -26.0620 ca         1 XHS       0.521500
     22 N14        -24.9810    16.3170   -25.5620 nb         1 XHS      -0.787000
     23 N15        -23.4960    15.4920   -27.1050 na         1 XHS       0.060100
     24 N16        -22.4230    15.6890   -27.9000 nd         1 XHS      -0.511100
     25 N20        -25.0490    12.0650   -28.7160 nb         1 XHS      -0.677000
     26 C22        -25.3100    13.7160   -26.9750 ca         1 XHS      -0.117000
     27 C25        -26.7480    10.5210   -26.7000 ca         1 XHS       0.238000
     28 F26        -25.5160     9.9970   -26.6290 f          1 XHS      -0.165000
     29 C28        -29.0770    10.3200   -26.3380 ca         1 XHS      -0.040000
     30 C29        -29.2660    11.6120   -26.8070 ca         1 XHS      -0.225000
     31 O31        -28.2540    13.6130   -27.7040 os         1 XHS      -0.331100
     32 H1         -30.7920    16.8440   -21.6970 h1         1 XHS       0.032700
     33 H2         -31.1800    15.8310   -23.0870 h1         1 XHS       0.032700
     34 H3         -30.1050    15.2160   -21.8210 h1         1 XHS       0.032700
     35 H4         -29.5350    15.4350   -24.7710 h1         1 XHS       0.040950
     36 H5         -28.3340    14.8500   -23.6140 h1         1 XHS       0.040950
     37 H6         -27.2280    15.6910   -25.6070 h1         1 XHS       0.054950
     38 H7         -28.0940    17.2220   -25.5230 h1         1 XHS       0.054950
     39 H8         -26.3080    18.0240   -22.2960 h1         1 XHS       0.054950
     40 H9         -27.4610    18.7670   -23.4080 h1         1 XHS       0.054950
     41 H10        -28.6250    17.8280   -21.5140 h1         1 XHS       0.040950
     42 H11        -27.7950    16.2760   -21.6710 h1         1 XHS       0.040950
     43 H12        -22.4710    18.8690   -24.2310 ha         1 XHS       0.119000
     44 H13        -21.8060    17.3100   -26.0600 ha         1 XHS       0.151000
     45 H14        -21.6340    14.6900   -29.5330 h4         1 XHS       0.054800
     46 H15        -23.4810    12.2450   -30.0290 h4         1 XHS       0.024100
     47 H16        -27.6590     8.7490   -25.9040 ha         1 XHS       0.136000
     48 H17        -29.3550    15.2220   -28.1970 h1         1 XHS       0.043033
     49 H18        -30.1870    13.6820   -28.4820 h1         1 XHS       0.043033
     50 H19        -30.0130    14.3100   -26.8270 h1         1 XHS       0.043033
     51 H21        -24.7190    18.7810   -23.2860 ha         1 XHS       0.125000
     52 H22        -25.8530    14.0660   -26.1130 ha         1 XHS       0.153000
     53 H23        -29.9350     9.7460   -26.0150 ha         1 XHS       0.115000
     54 H24        -30.2680    12.0160   -26.8450 ha         1 XHS       0.121000
@<TRIPOS>BOND
     1     1    17 1   
     2     1    32 1   
     3     1    33 1   
     4     1    34 1   
     5     2     3 1   
     6     2    17 1   
     7     2    35 1   
     8     2    36 1   
     9     3    18 1   
    10     3    37 1   
    11     3    38 1   
    12     4     5 1   
    13     4    18 1   
    14     4    39 1   
    15     4    40 1   
    16     5    17 1   
    17     5    41 1   
    18     5    42 1   
    19     6     7 ar  
    20     6    20 ar  
    21     6    43 1   
    22     7    21 ar  
    23     7    44 1   
    24     8     9 1   
    25     8    24 2   
    26     8    45 1   
    27     9    10 ar  
    28     9    12 ar  
    29    10    25 ar  
    30    10    46 1   
    31    11    13 1   
    32    11    25 ar  
    33    11    26 ar  
    34    12    23 1   
    35    12    26 ar  
    36    13    15 ar  
    37    13    27 ar  
    38    14    27 ar  
    39    14    29 ar  
    40    14    47 1   
    41    15    30 ar  
    42    15    31 1   
    43    16    31 1   
    44    16    48 1   
    45    16    49 1   
    46    16    50 1   
    47    18    19 1   
    48    19    20 ar  
    49    19    22 ar  
    50    20    51 1   
    51    21    22 ar  
    52    21    23 1   
    53    23    24 1   
    54    26    52 1   
    55    27    28 1   
    56    29    30 ar  
    57    29    53 1   
    58    30    54 1   
@<TRIPOS>SUBSTRUCTURE
     1 XHS         1 TEMP              0 ****  ****    0 ROOT
