@<TRIPOS>MOLECULE
XHS
   54    58     1     0     0
SMALL
No Charge or Current Charge


@<TRIPOS>ATOM
      1 C1         -30.9550    17.2260   -22.8830 c3         1 XHS       0.151100
      2 C4         -29.2330    16.9800   -24.6400 c6         1 XHS       0.151800
      3 C5         -27.8160    17.4040   -25.1420 c6         1 XHS       0.215300
      4 C7         -27.1080    17.6600   -22.7510 c6         1 XHS       0.215300
      5 C8         -28.5480    17.2330   -22.3160 c6         1 XHS       0.151800
      6 C11        -23.0110    17.3930   -24.1890 ca         1 XHS      -0.026000
      7 C12        -22.8230    16.7180   -25.4000 ca         1 XHS      -0.206000
      8 C17        -22.8130    15.1210   -29.2750 cc         1 XHS       0.384800
      9 C18        -23.7180    14.0610   -28.9250 ca         1 XHS      -0.295900
     10 C19        -24.0930    12.8940   -29.5900 ca         1 XHS       0.411900
     11 C21        -25.5120    12.3490   -27.8010 cp         1 XHS       0.427500
     12 C23        -24.2250    14.3760   -27.7110 ca         1 XHS       0.015800
     13 C24        -26.4940    11.3820   -27.2360 cp         1 XHS      -0.222500
     14 C27        -27.0820     9.1060   -26.5260 ca         1 XHS      -0.196000
     15 C30        -27.7860    11.8040   -26.8350 ca         1 XHS       0.182100
     16 C32        -29.3730    13.6890   -26.6620 c3         1 XHS       0.146900
     17 N2         -29.5900    17.5860   -23.3240 n3         1 XHS      -0.713600
     18 N6         -26.7350    17.1770   -24.1210 nh         1 XHS      -0.773300
     19 C9         -25.3850    17.0690   -24.5080 ca         1 XHS       0.648900
     20 C10        -24.3220    17.5690   -23.7370 ca         1 XHS      -0.248000
     21 C13        -23.9310    16.2430   -26.1340 ca         1 XHS       0.521500
     22 N14        -25.1920    16.4310   -25.6700 nb         1 XHS      -0.787000
     23 N15        -23.6490    15.5760   -27.3430 na         1 XHS       0.060100
     24 N16        -22.7570    16.0620   -28.3160 nd         1 XHS      -0.511100
     25 N20        -24.9870    12.0450   -29.0220 nb         1 XHS      -0.677000
     26 C22        -25.1460    13.5250   -27.0930 ca         1 XHS      -0.117000
     27 C25        -26.1610    10.0160   -27.0680 ca         1 XHS       0.238000
     28 F26        -24.9310     9.5600   -27.3940 f          1 XHS      -0.165000
     29 C28        -28.3580     9.5380   -26.1380 ca         1 XHS      -0.040000
     30 C29        -28.7110    10.8870   -26.2910 ca         1 XHS      -0.225000
     31 O31        -28.0960    13.1360   -27.0240 os         1 XHS      -0.331100
     32 H1         -31.1990    17.7230   -21.9340 h1         1 XHS       0.032700
     33 H2         -31.6980    17.5390   -23.6290 h1         1 XHS       0.032700
     34 H3         -31.0480    16.1410   -22.7380 h1         1 XHS       0.032700
     35 H4         -29.9710    17.2640   -25.4040 h1         1 XHS       0.040950
     36 H5         -29.2580    15.8830   -24.5640 h1         1 XHS       0.040950
     37 H6         -27.6210    16.8460   -26.0690 h1         1 XHS       0.054950
     38 H7         -27.8460    18.4700   -25.4110 h1         1 XHS       0.054950
     39 H8         -26.4110    17.2630   -22.0000 h1         1 XHS       0.054950
     40 H9         -27.0420    18.7580   -22.7150 h1         1 XHS       0.054950
     41 H10        -28.7750    17.7090   -21.3510 h1         1 XHS       0.040950
     42 H11        -28.5470    16.1460   -22.1430 h1         1 XHS       0.040950
     43 H12        -22.1640    17.7670   -23.6160 ha         1 XHS       0.119000
     44 H13        -21.8170    16.5600   -25.7780 ha         1 XHS       0.151000
     45 H14        -22.2000    15.2670   -30.1540 h4         1 XHS       0.054800
     46 H15        -23.6900    12.6280   -30.5660 h4         1 XHS       0.024100
     47 H16        -26.7990     8.0640   -26.4010 ha         1 XHS       0.136000
     48 H17        -29.4030    14.7600   -26.8980 h1         1 XHS       0.043033
     49 H18        -30.1830    13.1970   -27.2160 h1         1 XHS       0.043033
     50 H19        -29.5570    13.5720   -25.5870 h1         1 XHS       0.043033
     51 H21        -24.4990    18.0940   -22.8060 ha         1 XHS       0.125000
     52 H22        -25.5710    13.7450   -26.1200 ha         1 XHS       0.153000
     53 H23        -29.0700     8.8300   -25.7170 ha         1 XHS       0.115000
     54 H24        -29.7050    11.2000   -25.9860 ha         1 XHS       0.121000
@<TRIPOS>BOND
     1     1    17 1   
     2     1    32 1   
     3     1    33 1   
     4     1    34 1   
     5     2     3 1   
     6     2    17 1   
     7     2    35 1   
     8     2    36 1   
     9     3    18 1   
    10     3    37 1   
    11     3    38 1   
    12     4     5 1   
    13     4    18 1   
    14     4    39 1   
    15     4    40 1   
    16     5    17 1   
    17     5    41 1   
    18     5    42 1   
    19     6     7 ar  
    20     6    20 ar  
    21     6    43 1   
    22     7    21 ar  
    23     7    44 1   
    24     8     9 1   
    25     8    24 2   
    26     8    45 1   
    27     9    10 ar  
    28     9    12 ar  
    29    10    25 ar  
    30    10    46 1   
    31    11    13 1   
    32    11    25 ar  
    33    11    26 ar  
    34    12    23 1   
    35    12    26 ar  
    36    13    15 ar  
    37    13    27 ar  
    38    14    27 ar  
    39    14    29 ar  
    40    14    47 1   
    41    15    30 ar  
    42    15    31 1   
    43    16    31 1   
    44    16    48 1   
    45    16    49 1   
    46    16    50 1   
    47    18    19 1   
    48    19    20 ar  
    49    19    22 ar  
    50    20    51 1   
    51    21    22 ar  
    52    21    23 1   
    53    23    24 1   
    54    26    52 1   
    55    27    28 1   
    56    29    30 ar  
    57    29    53 1   
    58    30    54 1   
@<TRIPOS>SUBSTRUCTURE
     1 XHS         1 TEMP              0 ****  ****    0 ROOT
