@<TRIPOS>MOLECULE
XHV
   55    59     1     0     0
SMALL
No Charge or Current Charge


@<TRIPOS>ATOM
      1 C1         -40.1150    11.7600    19.2740 c3         1 XHV       0.150100
      2 C4         -41.8350    12.3670    20.9480 c6         1 XHV       0.154300
      3 C5         -43.1590    13.1520    21.2270 c6         1 XHV       0.204300
      4 C7         -43.8260    12.7920    18.8490 c6         1 XHV       0.204300
      5 C8         -42.4890    12.0150    18.6180 c6         1 XHV       0.154300
      6 C11        -47.9780    12.4110    20.3460 ca         1 XHV      -0.069500
      7 C12        -48.3490    13.4260    21.2470 ca         1 XHV      -0.024200
      8 C17        -51.7700    14.0830    21.3500 cc         1 XHV       0.371800
      9 C18        -51.5210    13.8230    22.7430 ca         1 XHV      -0.292900
     10 C19        -52.3490    13.8200    23.8650 ca         1 XHV       0.418900
     11 C21        -50.5090    13.2330    25.2020 cp         1 XHV       0.437500
     12 C23        -50.2040    13.5370    22.8400 ca         1 XHV      -0.007200
     13 C24        -50.0080    12.9210    26.5700 cp         1 XHV      -0.224500
     14 C27        -50.1310    11.6060    28.6400 ca         1 XHV      -0.196000
     15 C30        -48.9030    13.6180    27.1190 ca         1 XHV       0.183100
     16 C32        -47.2050    15.3800    26.7790 c3         1 XHV       0.146900
     17 N2         -41.3890    12.4680    19.5240 n3         1 XHV      -0.710600
     18 N6         -44.2620    12.7780    20.2830 nh         1 XHV      -0.796400
     19 C9         -45.6190    13.0060    20.6110 ca         1 XHV       0.316000
     20 C10        -46.6220    12.2050    20.0330 ca         1 XHV      -0.165500
     21 C13        -47.3520    14.2320    21.8280 ca         1 XHV      -0.069500
     22 C14        -45.9970    14.0210    21.5130 ca         1 XHV      -0.165500
     23 N15        -49.6910    13.6270    21.5640 na         1 XHV       0.178800
     24 N16        -50.6520    13.9650    20.6120 nd         1 XHV      -0.507100
     25 N20        -51.8370    13.5260    25.0880 nb         1 XHV      -0.681000
     26 C22        -49.6400    13.2210    24.0770 ca         1 XHV      -0.143000
     27 C25        -50.6090    11.9070    27.3560 ca         1 XHV       0.238000
     28 F26        -51.6390    11.1780    26.8720 f          1 XHV      -0.165000
     29 C28        -49.0410    12.3080    29.1720 ca         1 XHV      -0.040000
     30 C29        -48.4250    13.3130    28.4120 ca         1 XHV      -0.224000
     31 O31        -48.3400    14.6120    26.3440 os         1 XHV      -0.333100
     32 H1         -39.3210    12.1500    19.9250 h1         1 XHV       0.033033
     33 H2         -40.2190    10.6840    19.4660 h1         1 XHV       0.033033
     34 H3         -39.7960    11.8950    18.2320 h1         1 XHV       0.033033
     35 H4         -41.9960    11.3130    21.2170 h1         1 XHV       0.040950
     36 H5         -41.0540    12.7520    21.6200 h1         1 XHV       0.040950
     37 H6         -42.9510    14.2300    21.1460 h1         1 XHV       0.046450
     38 H7         -43.4630    12.9540    22.2650 h1         1 XHV       0.046450
     39 H8         -43.6880    13.8330    18.5190 h1         1 XHV       0.046450
     40 H9         -44.5960    12.3510    18.2000 h1         1 XHV       0.046450
     41 H10        -42.6820    10.9420    18.7690 h1         1 XHV       0.040950
     42 H11        -42.1910    12.1400    17.5670 h1         1 XHV       0.040950
     43 H12        -48.7390    11.7800    19.8920 ha         1 XHV       0.128000
     44 H13        -52.6830    14.3460    20.8330 h4         1 XHV       0.053800
     45 H14        -53.4130    14.0470    23.8010 h4         1 XHV       0.024100
     46 H15        -50.6070    10.8190    29.2210 ha         1 XHV       0.136000
     47 H16        -46.9190    16.1050    26.0070 h1         1 XHV       0.043367
     48 H17        -47.4380    15.9350    27.6960 h1         1 XHV       0.043367
     49 H18        -46.3430    14.7280    26.9690 h1         1 XHV       0.043367
     50 H20        -46.3500    11.4090    19.3460 ha         1 XHV       0.117500
     51 H21        -47.6260    15.0240    22.5220 ha         1 XHV       0.128000
     52 H22        -45.2470    14.6610    21.9670 ha         1 XHV       0.117500
     53 H23        -48.5890    12.9740    24.1830 ha         1 XHV       0.137000
     54 H24        -48.6720    12.0720    30.1690 ha         1 XHV       0.116000
     55 H25        -47.5820    13.8460    28.8430 ha         1 XHV       0.122000
@<TRIPOS>BOND
     1     1    17 1   
     2     1    32 1   
     3     1    33 1   
     4     1    34 1   
     5     2     3 1   
     6     2    17 1   
     7     2    35 1   
     8     2    36 1   
     9     3    18 1   
    10     3    37 1   
    11     3    38 1   
    12     4     5 1   
    13     4    18 1   
    14     4    39 1   
    15     4    40 1   
    16     5    17 1   
    17     5    41 1   
    18     5    42 1   
    19     6     7 ar  
    20     6    20 ar  
    21     6    43 1   
    22     7    21 ar  
    23     7    23 1   
    24     8     9 1   
    25     8    24 2   
    26     8    44 1   
    27     9    10 ar  
    28     9    12 ar  
    29    10    25 ar  
    30    10    45 1   
    31    11    13 1   
    32    11    25 ar  
    33    11    26 ar  
    34    12    23 1   
    35    12    26 ar  
    36    13    15 ar  
    37    13    27 ar  
    38    14    27 ar  
    39    14    29 ar  
    40    14    46 1   
    41    15    30 ar  
    42    15    31 1   
    43    16    31 1   
    44    16    47 1   
    45    16    48 1   
    46    16    49 1   
    47    18    19 1   
    48    19    20 ar  
    49    19    22 ar  
    50    20    50 1   
    51    21    22 ar  
    52    21    51 1   
    53    22    52 1   
    54    23    24 1   
    55    26    53 1   
    56    27    28 1   
    57    29    30 ar  
    58    29    54 1   
    59    30    55 1   
@<TRIPOS>SUBSTRUCTURE
     1 XHV         1 TEMP              0 ****  ****    0 ROOT
