@<TRIPOS>MOLECULE
XHW
   43    45     1     0     0
SMALL
No Charge or Current Charge


@<TRIPOS>ATOM
      1 N1         -17.2310    -3.5340   -26.3790 nb         1 XHW      -0.660000
      2 N3         -22.8370    -3.6850   -28.4960 n3         1 XHW      -0.737600
      3 C4         -16.2620    -4.3230   -25.8500 ca         1 XHW       0.359900
      4 C5         -16.5360    -5.3880   -24.9700 ca         1 XHW       0.052000
      5 C6         -17.8710    -5.6590   -24.6320 ca         1 XHW      -0.031000
      6 C7         -21.1040    -5.1430   -27.2460 c3         1 XHW       0.104000
      7 C8         -21.4030    -3.9440   -28.1820 c3         1 XHW       0.150800
      8 C10        -22.3540    -2.8990   -30.8470 ca         1 XHW      -0.077300
      9 C13        -21.2190    -3.5180   -33.3610 ca         1 XHW      -0.102000
     10 C15        -21.1540    -2.2740   -31.2640 ca         1 XHW       0.119000
     11 C17        -23.8600    -4.7010   -26.4000 c3         1 XHW      -0.091400
     12 O1         -20.6110    -5.4220   -23.6930 o          1 XHW      -0.589100
     13 C2         -18.8890    -4.8650   -25.2030 ca         1 XHW      -0.186600
     14 C3         -18.5160    -3.8040   -26.0490 ca         1 XHW       0.360900
     15 Cl1        -15.2330    -6.3660   -24.2980 cl         1 XHW      -0.175000
     16 N2         -21.3460    -4.8750   -25.8000 n          1 XHW      -0.402800
     17 C11        -22.9700    -3.8360   -31.7010 ca         1 XHW      -0.089000
     18 C12        -22.4070    -4.1440   -32.9510 ca         1 XHW      -0.112000
     19 C14        -20.5940    -2.5860   -32.5160 ca         1 XHW      -0.104000
     20 Cl2        -20.3110    -1.1040   -30.2460 cl         1 XHW      -0.214000
     21 C16        -23.6970    -3.4650   -27.3070 c3         1 XHW       0.179800
     22 C18        -22.7570    -4.8810   -25.3330 c3         1 XHW       0.101000
     23 H2         -15.2370    -4.0880   -26.1310 h4         1 XHW       0.037100
     24 H3         -18.1100    -6.4730   -23.9510 ha         1 XHW       0.147000
     25 H5         -20.0610    -5.4440   -27.3990 h1         1 XHW       0.058200
     26 H4         -21.7080    -6.0020   -27.5630 h1         1 XHW       0.058200
     27 H7         -20.9530    -3.0390   -27.7550 h1         1 XHW       0.043700
     28 H6         -20.8640    -4.1480   -29.1160 h1         1 XHW       0.043700
     29 H12        -20.7820    -3.7570   -34.3280 ha         1 XHW       0.119000
     30 H17        -24.8160    -4.6120   -25.8710 hc         1 XHW       0.055700
     31 H16        -23.9420    -5.6030   -27.0180 hc         1 XHW       0.055700
     32 H1         -19.2590    -3.1240   -26.4580 h4         1 XHW       0.029100
     33 H8         -24.0760    -2.4360   -29.6860 h1         1 XHW       0.052200
     34 H9         -22.6290    -1.6490   -29.0900 h1         1 XHW       0.052200
     35 H10        -23.8880    -4.3300   -31.3890 ha         1 XHW       0.134000
     36 H11        -22.8920    -4.8690   -33.6020 ha         1 XHW       0.117000
     37 H13        -19.6720    -2.1030   -32.8310 ha         1 XHW       0.129000
     38 H15        -23.3280    -2.6190   -26.7110 h1         1 XHW       0.036700
     39 H14        -24.7050    -3.1940   -27.6480 h1         1 XHW       0.036700
     40 H19        -22.8650    -4.0740   -24.5960 h1         1 XHW       0.054200
     41 H18        -22.9470    -5.8260   -24.8070 h1         1 XHW       0.054200
     42 C1         -20.3270    -5.1040   -24.8410 c          1 XHW       0.610700
     43 C9         -23.0050    -2.5970   -29.4960 c3         1 XHW       0.218100
@<TRIPOS>BOND
     1     1     3 ar  
     2     1    14 ar  
     3     2     7 1   
     4     2    21 1   
     5     2    43 1   
     6     3     4 ar  
     7     3    23 1   
     8     4     5 ar  
     9     4    15 1   
    10     5    13 ar  
    11     5    24 1   
    12     6     7 1   
    13     6    16 1   
    14     6    25 1   
    15     6    26 1   
    16     7    27 1   
    17     7    28 1   
    18     8    10 ar  
    19     8    17 ar  
    20     8    43 1   
    21     9    18 ar  
    22     9    19 ar  
    23     9    29 1   
    24    10    19 ar  
    25    10    20 1   
    26    11    21 1   
    27    11    22 1   
    28    11    30 1   
    29    11    31 1   
    30    12    42 2   
    31    13    14 ar  
    32    13    42 1   
    33    14    32 1   
    34    16    22 1   
    35    16    42 1   
    36    17    18 ar  
    37    17    35 1   
    38    18    36 1   
    39    19    37 1   
    40    21    38 1   
    41    21    39 1   
    42    22    40 1   
    43    22    41 1   
    44    33    43 1   
    45    34    43 1   
@<TRIPOS>SUBSTRUCTURE
     1 XHW         1 TEMP              0 ****  ****    0 ROOT
