@<TRIPOS>MOLECULE
XHW
   43    45     1     0     0
SMALL
abcg2


@<TRIPOS>ATOM
      1 N1         -17.1300    -3.6420   -25.9630 nb         1 XHW      -0.660000
      2 N3         -22.6010    -3.5350   -28.4710 n3         1 XHW      -0.737600
      3 C4         -16.3260    -4.6330   -25.6130 ca         1 XHW       0.359900
      4 C5         -16.8050    -5.7970   -25.0260 ca         1 XHW       0.052000
      5 C6         -18.1600    -5.9370   -24.7900 ca         1 XHW      -0.031000
      6 C7         -21.0190    -5.0320   -27.2460 c3         1 XHW       0.104000
      7 C8         -21.2320    -3.7590   -28.0520 c3         1 XHW       0.150800
      8 C10        -22.2250    -2.8390   -30.8060 ca         1 XHW      -0.077300
      9 C13        -21.4580    -3.5840   -33.4070 ca         1 XHW      -0.102000
     10 C15        -21.8830    -1.8910   -31.7670 ca         1 XHW       0.119000
     11 C17        -23.7450    -4.6650   -26.5780 c3         1 XHW      -0.091400
     12 O1         -20.7720    -5.0980   -23.6660 o          1 XHW      -0.589100
     13 C2         -19.0020    -4.9060   -25.1860 ca         1 XHW      -0.186600
     14 C3         -18.4330    -3.7760   -25.7600 ca         1 XHW       0.360900
     15 CL1        -15.7070    -7.0500   -24.5850 cl         1 XHW      -0.175000
     16 N2         -21.3640    -4.9220   -25.8390 n          1 XHW      -0.402800
     17 C11        -22.1830    -4.1760   -31.1950 ca         1 XHW      -0.089000
     18 C12        -21.8040    -4.5510   -32.4740 ca         1 XHW      -0.112000
     19 C14        -21.5000    -2.2440   -33.0530 ca         1 XHW      -0.104000
     20 CL2        -21.9500    -0.1970   -31.3780 cl         1 XHW      -0.214000
     21 C16        -23.5320    -3.3780   -27.3670 c3         1 XHW       0.179800
     22 C18        -22.7710    -4.9260   -25.4420 c3         1 XHW       0.101000
     23 H2         -15.2650    -4.5060   -25.7970 h4         1 XHW       0.037100
     24 H3         -18.5530    -6.8300   -24.3210 ha         1 XHW       0.147000
     25 H5         -19.9720    -5.3160   -27.3250 h1         1 XHW       0.058200
     26 H4         -21.5800    -5.8550   -27.6960 h1         1 XHW       0.058200
     27 H7         -20.8400    -2.9000   -27.4820 h1         1 XHW       0.043700
     28 H6         -20.6140    -3.8400   -28.9500 h1         1 XHW       0.043700
     29 H12        -21.1570    -3.8640   -34.4080 ha         1 XHW       0.119000
     30 H17        -24.7290    -4.6150   -26.1050 hc         1 XHW       0.055700
     31 H16        -23.7930    -5.5090   -27.2700 hc         1 XHW       0.055700
     32 H1         -19.0540    -2.9380   -26.0550 h4         1 XHW       0.029100
     33 H8         -23.7090    -2.1020   -29.4850 h1         1 XHW       0.052200
     34 H9         -22.0950    -1.5680   -29.0790 h1         1 XHW       0.052200
     35 H10        -22.4520    -4.9280   -30.4640 ha         1 XHW       0.134000
     36 H11        -21.7790    -5.5990   -32.7420 ha         1 XHW       0.117000
     37 H13        -21.2390    -1.4780   -33.7700 ha         1 XHW       0.129000
     38 H15        -23.2380    -2.5650   -26.6820 h1         1 XHW       0.036700
     39 H14        -24.4920    -3.0850   -27.7960 h1         1 XHW       0.036700
     40 H19        -22.9130    -4.1600   -24.6790 h1         1 XHW       0.054200
     41 H18        -23.0210    -5.8840   -24.9770 h1         1 XHW       0.054200
     42 C1         -20.4600    -4.9860   -24.8440 c          1 XHW       0.610700
     43 C9         -22.6710    -2.4420   -29.4180 c3         1 XHW       0.218100
@<TRIPOS>BOND
     1     1     3 ar  
     2     1    14 ar  
     3     2     7 1   
     4     2    21 1   
     5     2    43 1   
     6     3     4 ar  
     7     3    23 1   
     8     4     5 ar  
     9     4    15 1   
    10     5    13 ar  
    11     5    24 1   
    12     6     7 1   
    13     6    16 1   
    14     6    25 1   
    15     6    26 1   
    16     7    27 1   
    17     7    28 1   
    18     8    10 ar  
    19     8    17 ar  
    20     8    43 1   
    21     9    18 ar  
    22     9    19 ar  
    23     9    29 1   
    24    10    19 ar  
    25    10    20 1   
    26    11    21 1   
    27    11    22 1   
    28    11    30 1   
    29    11    31 1   
    30    12    42 2   
    31    13    14 ar  
    32    13    42 1   
    33    14    32 1   
    34    16    22 1   
    35    16    42 1   
    36    17    18 ar  
    37    17    35 1   
    38    18    36 1   
    39    19    37 1   
    40    21    38 1   
    41    21    39 1   
    42    22    40 1   
    43    22    41 1   
    44    33    43 1   
    45    34    43 1   
@<TRIPOS>SUBSTRUCTURE
     1 XHW         1 TEMP              0 ****  ****    0 ROOT
