@<TRIPOS>MOLECULE
XHX
   43    46     1     0     0
SMALL
No Charge or Current Charge


@<TRIPOS>ATOM
      1 C1          -8.2030    44.6720    79.6860 c3         1 XHX      -0.130400
      2 C10         -2.7090    53.5400    84.2730 cx         1 XHX      -0.089400
      3 C11         -3.3570    53.5450    85.6390 cx         1 XHX      -0.112400
      4 C12         -2.0580    52.8090    85.4270 cx         1 XHX       0.122500
      5 C13          0.4370    53.0010    85.4530 cy         1 XHX       0.165500
      6 C14          0.7120    53.1100    83.9120 cy         1 XHX      -0.107900
      7 C15          0.3970    51.5810    83.8040 cy         1 XHX      -0.090400
      8 C16          0.7970    51.4810    85.3160 cy         1 XHX      -0.107900
      9 C17         -3.9500    51.5600    83.2450 ca         1 XHX      -0.061000
     10 C2          -7.4990    45.7740    80.4190 cc         1 XHX       0.419700
     11 C3          -6.3390    47.7190    81.1190 cc         1 XHX       0.546300
     12 C4          -5.1820    49.5370    82.3550 c          1 XHX       0.624700
     13 C5          -4.4750    50.8620    82.1310 ca         1 XHX      -0.155600
     14 C6          -4.3170    51.4320    80.8430 ca         1 XHX      -0.089000
     15 C7          -3.6540    52.6590    80.6850 ca         1 XHX      -0.115000
     16 C8          -3.1390    53.3360    81.8000 ca         1 XHX      -0.081000
     17 C9          -3.2830    52.7960    83.0900 ca         1 XHX      -0.043300
     18 N1          -7.3290    45.7950    81.7310 nd         1 XHX      -0.302000
     19 N2          -6.6510    46.9310    82.1380 nd         1 XHX      -0.333000
     20 N3          -5.6650    48.9130    81.2280 ns         1 XHX      -0.485400
     21 N4          -0.8600    53.3930    86.0040 n7         1 XHX      -0.843400
     22 O1          -5.3060    49.0640    83.4760 o          1 XHX      -0.519100
     23 S1          -6.8500    47.1400    79.5670 ss         1 XHX      -0.340800
     24 H1          -7.6320    44.3690    78.8010 hc         1 XHX       0.063033
     25 H2          -8.3320    43.7900    80.3240 hc         1 XHX       0.063033
     26 H3          -9.1950    45.0030    79.3560 hc         1 XHX       0.063033
     27 H4          -2.2420    54.4760    83.9780 hc         1 XHX       0.095700
     28 H5          -3.3320    54.4740    86.2030 hc         1 XHX       0.078700
     29 H6          -4.2560    52.9520    85.7860 hc         1 XHX       0.078700
     30 H7          -2.1130    51.7190    85.4420 h1         1 XHX       0.067700
     31 H8           1.1970    53.5440    86.0300 h1         1 XHX       0.063700
     32 H9           0.0530    53.7760    83.3460 hc         1 XHX       0.051700
     33 H10          1.7490    53.3680    83.6680 hc         1 XHX       0.051700
     34 H11         -0.6490    51.3420    83.5860 hc         1 XHX       0.051700
     35 H12          1.0270    51.0160    83.1090 hc         1 XHX       0.051700
     36 H13          1.8580    51.2630    85.4810 hc         1 XHX       0.051700
     37 H14          0.2040    50.7870    85.9210 hc         1 XHX       0.051700
     38 H15         -4.0600    51.1350    84.2390 ha         1 XHX       0.134000
     39 H18         -4.6990    50.9420    79.9510 ha         1 XHX       0.113000
     40 H19         -3.5370    53.0870    79.6920 ha         1 XHX       0.119000
     41 H20         -2.6250    54.2840    81.6570 ha         1 XHX       0.118000
     42 H23         -5.4970    49.4070    80.3670 hn         1 XHX       0.336500
     43 H24         -0.8520    53.1930    87.0120 hn         1 XHX       0.425000
@<TRIPOS>BOND
     1     1    10 1   
     2     1    24 1   
     3     1    25 1   
     4     1    26 1   
     5     2     3 1   
     6     2     4 1   
     7     2    17 1   
     8     2    27 1   
     9     3     4 1   
    10     3    28 1   
    11     3    29 1   
    12     4    21 1   
    13     4    30 1   
    14     5     6 1   
    15     5     8 1   
    16     5    21 1   
    17     5    31 1   
    18     6     7 1   
    19     6    32 1   
    20     6    33 1   
    21     7     8 1   
    22     7    34 1   
    23     7    35 1   
    24     8    36 1   
    25     8    37 1   
    26     9    13 ar  
    27     9    17 ar  
    28     9    38 1   
    29    10    18 2   
    30    10    23 1   
    31    11    19 2   
    32    11    20 1   
    33    11    23 1   
    34    12    13 1   
    35    12    20 1   
    36    12    22 2   
    37    13    14 ar  
    38    14    15 ar  
    39    14    39 1   
    40    15    16 ar  
    41    15    40 1   
    42    16    17 ar  
    43    16    41 1   
    44    18    19 1   
    45    20    42 1   
    46    21    43 1   
@<TRIPOS>SUBSTRUCTURE
     1 XHX         1 TEMP              0 ****  ****    0 ROOT
