@<TRIPOS>MOLECULE
XHX
   43    46     1     0     0
SMALL
abcg2


@<TRIPOS>ATOM
      1 C1          -8.4790    44.8390    80.0820 c3         1 XHX      -0.130400
      2 C10         -2.7800    53.5020    84.2040 cx         1 XHX      -0.089400
      3 C11         -3.4780    53.4070    85.5340 cx         1 XHX      -0.112400
      4 C12         -2.1370    52.7860    85.3680 cx         1 XHX       0.122500
      5 C13          0.2890    52.9820    85.5490 cy         1 XHX       0.165500
      6 C14          0.5430    53.1190    84.0290 cy         1 XHX      -0.107900
      7 C15          0.4570    51.5880    83.8810 cy         1 XHX      -0.090400
      8 C16          0.5740    51.4590    85.4120 cy         1 XHX      -0.107900
      9 C17         -3.8330    51.5070    83.0910 ca         1 XHX      -0.061000
     10 C2          -7.5060    45.8630    80.5360 cc         1 XHX       0.419700
     11 C3          -6.1990    47.7910    81.0130 cc         1 XHX       0.546300
     12 C4          -4.8140    49.4610    82.1340 c          1 XHX       0.624700
     13 C5          -4.2270    50.8190    81.9470 ca         1 XHX      -0.155600
     14 C6          -4.0120    51.3810    80.6910 ca         1 XHX      -0.089000
     15 C7          -3.4110    52.6270    80.5970 ca         1 XHX      -0.115000
     16 C8          -3.0290    53.3080    81.7410 ca         1 XHX      -0.081000
     17 C9          -3.2320    52.7600    83.0090 ca         1 XHX      -0.043300
     18 N1          -6.4420    45.6160    81.2200 nd         1 XHX      -0.302000
     19 N2          -5.6910    46.7040    81.4890 nd         1 XHX      -0.333000
     20 N3          -5.6460    49.0450    81.1180 ns         1 XHX      -0.485400
     21 N4          -1.0210    53.4050    86.0040 n7         1 XHX      -0.843400
     22 O1          -4.5830    48.7860    83.1110 o          1 XHX      -0.519100
     23 S1          -7.6940    47.5480    80.1720 ss         1 XHX      -0.340800
     24 H1          -8.5380    44.8090    78.9940 hc         1 XHX       0.063033
     25 H2          -8.1650    43.8600    80.4390 hc         1 XHX       0.063033
     26 H3          -9.4790    45.0450    80.4630 hc         1 XHX       0.063033
     27 H4          -2.3490    54.4730    83.9860 hc         1 XHX       0.095700
     28 H5          -3.5470    54.3190    86.1140 hc         1 XHX       0.078700
     29 H6          -4.3380    52.7530    85.6160 hc         1 XHX       0.078700
     30 H7          -2.1410    51.6970    85.2880 h1         1 XHX       0.067700
     31 H8           1.0140    53.5100    86.1710 h1         1 XHX       0.063700
     32 H9          -0.1630    53.7210    83.4560 hc         1 XHX       0.051700
     33 H10          1.5460    53.4980    83.8310 hc         1 XHX       0.051700
     34 H11         -0.5130    51.2590    83.5050 hc         1 XHX       0.051700
     35 H12          1.2340    51.1080    83.2850 hc         1 XHX       0.051700
     36 H13          1.5850    51.2100    85.7350 hc         1 XHX       0.051700
     37 H14         -0.1170    50.7760    85.9120 hc         1 XHX       0.051700
     38 H15         -4.0060    51.0490    84.0580 ha         1 XHX       0.134000
     39 H18         -4.2700    50.8530    79.7810 ha         1 XHX       0.113000
     40 H19         -3.2310    53.0640    79.6240 ha         1 XHX       0.119000
     41 H20         -2.5580    54.2800    81.6530 ha         1 XHX       0.118000
     42 H23         -5.9470    49.7310    80.4420 hn         1 XHX       0.336500
     43 H24         -1.0850    53.2600    87.0040 hn         1 XHX       0.425000
@<TRIPOS>BOND
     1     1    10 1   
     2     1    24 1   
     3     1    25 1   
     4     1    26 1   
     5     2     3 1   
     6     2     4 1   
     7     2    17 1   
     8     2    27 1   
     9     3     4 1   
    10     3    28 1   
    11     3    29 1   
    12     4    21 1   
    13     4    30 1   
    14     5     6 1   
    15     5     8 1   
    16     5    21 1   
    17     5    31 1   
    18     6     7 1   
    19     6    32 1   
    20     6    33 1   
    21     7     8 1   
    22     7    34 1   
    23     7    35 1   
    24     8    36 1   
    25     8    37 1   
    26     9    13 ar  
    27     9    17 ar  
    28     9    38 1   
    29    10    18 2   
    30    10    23 1   
    31    11    19 2   
    32    11    20 1   
    33    11    23 1   
    34    12    13 1   
    35    12    20 1   
    36    12    22 2   
    37    13    14 ar  
    38    14    15 ar  
    39    14    39 1   
    40    15    16 ar  
    41    15    40 1   
    42    16    17 ar  
    43    16    41 1   
    44    18    19 1   
    45    20    42 1   
    46    21    43 1   
@<TRIPOS>SUBSTRUCTURE
     1 XHX         1 TEMP              0 ****  ****    0 ROOT
