@<TRIPOS>MOLECULE
XHY
   37    39     1     0     0
SMALL
No Charge or Current Charge


@<TRIPOS>ATOM
      1 C10          0.7120     4.0850    -8.5530 ca         1 XHY      -0.008000
      2 C13         -0.1140     2.0760    -6.7230 ca         1 XHY      -0.129600
      3 C15          1.5710     3.6710    -7.5200 ca         1 XHY      -0.115500
      4 C21         -1.2080     7.2800   -12.8180 c          1 XHY       0.726000
      5 C24          2.0640     8.1900   -13.0910 ca         1 XHY      -0.095800
      6 C02          2.9090     9.8590   -14.6110 ca         1 XHY      -0.136300
      7 C03          3.9340    10.1540   -13.6760 ca         1 XHY      -0.111000
      8 C04          4.0100     9.4610   -12.4480 ca         1 XHY      -0.126000
      9 C05          3.0500     8.4770   -12.1850 ca         1 XHY       0.060100
     10 O06          2.9730     7.7090   -11.0450 os         1 XHY      -0.181200
     11 C07          1.8640     6.8910   -11.2590 cc         1 XHY       0.142400
     12 C08          1.4780     5.9450   -10.2710 cg         1 XHY      -0.151300
     13 C09          1.1260     5.0920    -9.4720 ch         1 XHY      -0.061000
     14 C11         -0.5590     3.4970    -8.6730 ca         1 XHY      -0.115500
     15 C12         -0.9700     2.5030    -7.7680 ca         1 XHY      -0.100000
     16 C14          1.1630     2.6760    -6.6140 ca         1 XHY      -0.100000
     17 C16         -0.5570     0.9990    -5.7420 c          1 XHY       0.715600
     18 O17          0.2140     0.6610    -4.8540 o          1 XHY      -0.728000
     19 O18         -1.6690     0.5060    -5.8740 o          1 XHY      -0.728000
     20 C19          1.2820     7.1490   -12.4920 cd         1 XHY      -0.010400
     21 O22         -1.8000     7.0650   -11.7710 o          1 XHY      -0.727000
     22 O23         -1.5080     8.1780   -13.5900 o          1 XHY      -0.727000
     23 C25          1.9540     8.8580   -14.3180 ca         1 XHY      -0.026000
     24 H1           2.5570     4.1180    -7.4180 ha         1 XHY       0.099500
     25 H2          -0.0090     5.4850   -12.6500 hc         1 XHY       0.039200
     26 H3           0.2470     6.4370   -14.1840 hc         1 XHY       0.039200
     27 H4           3.2100    11.6410   -15.8220 hc         1 XHY       0.026033
     28 H5           3.4490    10.1170   -16.6960 hc         1 XHY       0.026033
     29 H6           1.8120    10.6730   -16.3060 hc         1 XHY       0.026033
     30 H7           4.6700    10.9220   -13.9020 ha         1 XHY       0.085000
     31 H8           4.7910     9.6840   -11.7260 ha         1 XHY       0.109000
     32 H9          -1.2330     3.8100    -9.4680 ha         1 XHY       0.099500
     33 H10         -1.9580     2.0630    -7.8820 ha         1 XHY       0.122500
     34 H11          1.8470     2.3730    -5.8240 ha         1 XHY       0.122500
     35 H14          1.1580     8.6130   -15.0180 ha         1 XHY       0.141000
     36 C01          2.8410    10.6140   -15.9300 c3         1 XHY      -0.028800
     37 C20          0.0700     6.4800   -13.1030 c3         1 XHY      -0.173200
@<TRIPOS>BOND
     1     1     3 ar  
     2     1    13 1   
     3     1    14 ar  
     4     2    15 ar  
     5     2    16 ar  
     6     2    17 1   
     7     3    16 ar  
     8     3    24 1   
     9     4    21 1   
    10     4    22 1   
    11     4    37 1   
    12     5     9 ar  
    13     5    20 1   
    14     5    23 ar  
    15     6     7 ar  
    16     6    23 ar  
    17     6    36 1   
    18     7     8 ar  
    19     7    30 1   
    20     8     9 ar  
    21     8    31 1   
    22     9    10 1   
    23    10    11 1   
    24    11    12 1   
    25    11    20 2   
    26    12    13 3   
    27    14    15 ar  
    28    14    32 1   
    29    15    33 1   
    30    16    34 1   
    31    17    18 1   
    32    17    19 1   
    33    20    37 1   
    34    23    35 1   
    35    25    37 1   
    36    26    37 1   
    37    27    36 1   
    38    28    36 1   
    39    29    36 1   
@<TRIPOS>SUBSTRUCTURE
     1 XHY         1 TEMP              0 ****  ****    0 ROOT
