@<TRIPOS>MOLECULE
XHY
   37    39     1     0     0
SMALL
abcg2


@<TRIPOS>ATOM
      1 C10          0.7680     4.0290    -8.5820 ca         1 XHY      -0.008000
      2 C13         -0.0480     2.0910    -6.7180 ca         1 XHY      -0.129600
      3 C15          1.5720     3.7220    -7.4790 ca         1 XHY      -0.115500
      4 C21         -1.2040     7.6030   -13.1220 c          1 XHY       0.726000
      5 C24          1.9900     8.1400   -13.0760 ca         1 XHY      -0.095800
      6 C02          2.8730     9.8440   -14.5130 ca         1 XHY      -0.136300
      7 C03          3.9400    10.0130   -13.6090 ca         1 XHY      -0.111000
      8 C04          4.0570     9.2720   -12.4450 ca         1 XHY      -0.126000
      9 C05          3.0600     8.3410   -12.2050 ca         1 XHY       0.060100
     10 O06          2.9630     7.5160   -11.1420 os         1 XHY      -0.181200
     11 C07          1.8240     6.7760   -11.3350 cc         1 XHY       0.142400
     12 C08          1.4920     5.8290   -10.3550 cg         1 XHY      -0.151300
     13 C09          1.1710     5.0030    -9.5310 ch         1 XHY      -0.061000
     14 C11         -0.4480     3.3550    -8.7430 ca         1 XHY      -0.115500
     15 C12         -0.8400     2.4000    -7.8230 ca         1 XHY      -0.100000
     16 C14          1.1600     2.7690    -6.5640 ca         1 XHY      -0.100000
     17 C16         -0.4960     1.0420    -5.7030 c          1 XHY       0.715600
     18 O17          0.2310     0.8910    -4.7030 o          1 XHY      -0.728000
     19 O18         -1.5490     0.4340    -5.9690 o          1 XHY      -0.728000
     20 C19          1.1870     7.1060   -12.4910 cd         1 XHY      -0.010400
     21 O22         -1.3970     8.2480   -12.0770 o          1 XHY      -0.727000
     22 O23         -1.8210     7.6940   -14.1990 o          1 XHY      -0.727000
     23 C25          1.8950     8.9010   -14.2420 ca         1 XHY      -0.026000
     24 H1           2.5150     4.2350    -7.3440 ha         1 XHY       0.099500
     25 H2          -0.4040     5.7130   -12.4320 hc         1 XHY       0.039200
     26 H3           0.1350     6.1340   -14.0500 hc         1 XHY       0.039200
     27 H4           2.8890    11.7480   -15.5210 hc         1 XHY       0.026033
     28 H5           3.6410    10.4510   -16.4310 hc         1 XHY       0.026033
     29 H6           1.8870    10.5270   -16.3020 hc         1 XHY       0.026033
     30 H7           4.6980    10.7550   -13.8310 ha         1 XHY       0.085000
     31 H8           4.8800     9.4210   -11.7600 ha         1 XHY       0.109000
     32 H9          -1.0790     3.5870    -9.5910 ha         1 XHY       0.099500
     33 H10         -1.7800     1.8830    -7.9610 ha         1 XHY       0.122500
     34 H11          1.7890     2.5470    -5.7110 ha         1 XHY       0.122500
     35 H14          1.0620     8.7620   -14.9220 ha         1 XHY       0.141000
     36 C01          2.8160    10.6840   -15.7560 c3         1 XHY      -0.028800
     37 C20         -0.0630     6.5450   -13.0570 c3         1 XHY      -0.173200
@<TRIPOS>BOND
     1     1     3 ar  
     2     1    13 1   
     3     1    14 ar  
     4     2    15 ar  
     5     2    16 ar  
     6     2    17 1   
     7     3    16 ar  
     8     3    24 1   
     9     4    21 1   
    10     4    22 1   
    11     4    37 1   
    12     5     9 ar  
    13     5    20 1   
    14     5    23 ar  
    15     6     7 ar  
    16     6    23 ar  
    17     6    36 1   
    18     7     8 ar  
    19     7    30 1   
    20     8     9 ar  
    21     8    31 1   
    22     9    10 1   
    23    10    11 1   
    24    11    12 1   
    25    11    20 2   
    26    12    13 3   
    27    14    15 ar  
    28    14    32 1   
    29    15    33 1   
    30    16    34 1   
    31    17    18 1   
    32    17    19 1   
    33    20    37 1   
    34    23    35 1   
    35    25    37 1   
    36    26    37 1   
    37    27    36 1   
    38    28    36 1   
    39    29    36 1   
@<TRIPOS>SUBSTRUCTURE
     1 XHY         1 TEMP              0 ****  ****    0 ROOT
