@<TRIPOS>MOLECULE
XHZ
   23    24     1     0     0
SMALL
No Charge or Current Charge


@<TRIPOS>ATOM
      1 C4          28.2370    23.1270    10.5580 ca         1 XHZ      -0.069000
      2 C5          29.4810    22.5110    10.7780 ca         1 XHZ      -0.114000
      3 C6          29.6090    21.1000    10.7500 ca         1 XHZ       0.051000
      4 C11         28.5370    18.9300    10.3800 ca         1 XHZ      -0.024000
      5 C7          30.8540    20.4420    10.9720 ca         1 XHZ      -0.285600
      6 C8          32.1180    21.1970    11.2840 c          1 XHZ       0.590500
      7 C9          30.9140    19.0340    10.8750 ca         1 XHZ       0.208100
      8 C10         29.7660    18.2910    10.5780 ca         1 XHZ      -0.157000
      9 C12         28.4540    20.3290    10.4630 ca         1 XHZ      -0.089000
     10 C13         27.2100    20.9530    10.2450 ca         1 XHZ      -0.064000
     11 C3          27.0970    22.3510    10.2960 ca         1 XHZ       0.018000
     12 C1          24.7520    23.5110     9.8780 c1         1 XHZ      -0.221000
     13 C2          25.8290    22.9830    10.0710 cg         1 XHZ      -0.128000
     14 O2          32.0750    18.3450    11.0830 oh         1 XHZ      -0.531100
     15 O1          32.1920    22.0950    12.1140 o          1 XHZ      -0.526100
     16 H4          28.1620    24.2120    10.5870 ha         1 XHZ       0.123000
     17 H5          30.3330    23.1560    10.9590 ha         1 XHZ       0.149000
     18 H11         27.6530    18.3370    10.1560 ha         1 XHZ       0.122000
     19 H8          33.0330    20.8420    10.7620 h4         1 XHZ      -0.038800
     20 H10         29.8270    17.2080    10.5100 ha         1 XHZ       0.137000
     21 H13         26.3290    20.3510    10.0300 ha         1 XHZ       0.120000
     22 H1          23.8040    23.9830     9.7090 ha         1 XHZ       0.258000
     23 HO2         32.6900    18.8880    11.6180 ho         1 XHZ       0.475000
@<TRIPOS>BOND
     1     1     2 ar  
     2     1    11 ar  
     3     1    16 1   
     4     2     3 ar  
     5     2    17 1   
     6     3     5 ar  
     7     3     9 ar  
     8     4     8 ar  
     9     4     9 ar  
    10     4    18 1   
    11     5     6 1   
    12     5     7 ar  
    13     6    15 2   
    14     6    19 1   
    15     7     8 ar  
    16     7    14 1   
    17     8    20 1   
    18     9    10 ar  
    19    10    11 ar  
    20    10    21 1   
    21    11    13 1   
    22    12    13 3   
    23    12    22 1   
    24    14    23 1   
@<TRIPOS>SUBSTRUCTURE
     1 XHZ         1 TEMP              0 ****  ****    0 ROOT
