@<TRIPOS>MOLECULE
XHZ
   23    24     1     0     0
SMALL
abcg2


@<TRIPOS>ATOM
      1 C4          28.2150    23.1160    10.6130 ca         1 XHZ      -0.069000
      2 C5          29.4360    22.5310    10.8430 ca         1 XHZ      -0.114000
      3 C6          29.6060    21.1270    10.7690 ca         1 XHZ       0.051000
      4 C11         28.5730    18.9360    10.3570 ca         1 XHZ      -0.024000
      5 C7          30.8670    20.4630    10.9970 ca         1 XHZ      -0.285600
      6 C8          32.1010    21.1770    11.2980 c          1 XHZ       0.590500
      7 C9          30.9120    19.0640    10.9070 ca         1 XHZ       0.208100
      8 C10         29.7600    18.3110    10.5820 ca         1 XHZ      -0.157000
      9 C12         28.4560    20.3490    10.4450 ca         1 XHZ      -0.089000
     10 C13         27.2150    20.9670    10.2110 ca         1 XHZ      -0.064000
     11 C3          27.0750    22.3410    10.2910 ca         1 XHZ       0.018000
     12 C1          24.7570    23.5120     9.8810 c1         1 XHZ      -0.221000
     13 C2          25.8170    22.9700    10.0600 cg         1 XHZ      -0.128000
     14 O2          32.0060    18.3020    11.1110 oh         1 XHZ      -0.531100
     15 O1          32.2480    22.3800    11.4540 o          1 XHZ      -0.526100
     16 H4          28.1160    24.1920    10.6790 ha         1 XHZ       0.123000
     17 H5          30.2820    23.1490    11.0880 ha         1 XHZ       0.149000
     18 H11         27.6920    18.3570    10.1100 ha         1 XHZ       0.122000
     19 H8          33.0050    20.5480    11.3830 h4         1 XHZ      -0.038800
     20 H10         29.8550    17.2350    10.5230 ha         1 XHZ       0.137000
     21 H13         26.3610    20.3480     9.9660 ha         1 XHZ       0.120000
     22 H1          23.8170    23.9860     9.7230 ha         1 XHZ       0.258000
     23 HO2         32.7830    18.8160    11.3660 ho         1 XHZ       0.475000
@<TRIPOS>BOND
     1     1     2 ar  
     2     1    11 ar  
     3     1    16 1   
     4     2     3 ar  
     5     2    17 1   
     6     3     5 ar  
     7     3     9 ar  
     8     4     8 ar  
     9     4     9 ar  
    10     4    18 1   
    11     5     6 1   
    12     5     7 ar  
    13     6    15 2   
    14     6    19 1   
    15     7     8 ar  
    16     7    14 1   
    17     8    20 1   
    18     9    10 ar  
    19    10    11 ar  
    20    10    21 1   
    21    11    13 1   
    22    12    13 3   
    23    12    22 1   
    24    14    23 1   
@<TRIPOS>SUBSTRUCTURE
     1 XHZ         1 TEMP              0 ****  ****    0 ROOT
