@<TRIPOS>MOLECULE
XI0
   41    43     1     0     0
SMALL
No Charge or Current Charge


@<TRIPOS>ATOM
      1 N1         -16.4610    -3.7440   -27.4970 nb         1 XI0      -0.662000
      2 C4         -20.2260    -4.3710   -27.4590 c3         1 XI0      -0.104100
      3 C5         -20.6510    -4.7360   -28.8960 c          1 XI0       0.603100
      4 C6         -23.0850    -4.2450   -28.3040 c5         1 XI0       0.104000
      5 C7         -24.2570    -3.8740   -29.2480 c5         1 XI0      -0.093400
      6 C8         -24.0370    -4.8470   -30.4360 c5         1 XI0      -0.087400
      7 C10        -22.1470    -3.6690   -31.5820 ca         1 XI0      -0.075300
      8 C13        -21.5160    -1.6140   -33.4290 ca         1 XI0      -0.101000
      9 C15        -21.8660    -2.3540   -31.1360 ca         1 XI0      -0.088000
     10 C17        -16.0290    -4.7450   -26.6960 ca         1 XI0       0.337900
     11 O          -19.8430    -5.1690   -29.7080 o          1 XI0      -0.581100
     12 C3         -18.7360    -4.5360   -27.1640 ca         1 XI0      -0.119300
     13 C2         -18.2750    -5.5730   -26.3340 ca         1 XI0      -0.054000
     14 C16        -17.7920    -3.6490   -27.7230 ca         1 XI0       0.343900
     15 C1         -16.8940    -5.6810   -26.0930 ca         1 XI0      -0.125300
     16 C          -16.3490    -6.7890   -25.2030 c3         1 XI0      -0.041800
     17 N          -21.9960    -4.5270   -29.2660 n          1 XI0      -0.425800
     18 C9         -22.4920    -4.8280   -30.6280 c5         1 XI0       0.159000
     19 C14        -21.5540    -1.3390   -32.0550 ca         1 XI0       0.121000
     20 Cl         -21.2090     0.2860   -31.4770 cl         1 XI0      -0.209000
     21 C12        -21.7920    -2.9120   -33.8860 ca         1 XI0      -0.100000
     22 C11        -22.1040    -3.9290   -32.9680 ca         1 XI0      -0.100000
     23 H5         -20.8600    -4.9380   -26.7670 hc         1 XI0       0.064700
     24 H6         -20.5720    -3.3510   -27.2570 hc         1 XI0       0.064700
     25 H7         -22.8470    -3.4200   -27.6200 h1         1 XI0       0.044200
     26 H10        -25.2340    -4.0040   -28.7690 hc         1 XI0       0.058700
     27 H9         -24.1930    -2.8290   -29.5700 hc         1 XI0       0.058700
     28 H12        -24.3750    -5.8560   -30.1710 hc         1 XI0       0.058200
     29 H11        -24.5880    -4.5530   -31.3370 hc         1 XI0       0.058200
     30 H15        -21.2750    -0.8240   -34.1370 ha         1 XI0       0.129000
     31 H16        -21.8870    -2.1060   -30.0790 ha         1 XI0       0.127000
     32 H18        -14.9520    -4.7990   -26.5340 h4         1 XI0       0.016100
     33 H4         -18.9720    -6.2800   -25.8870 ha         1 XI0       0.116000
     34 H17        -18.1130    -2.8340   -28.3710 h4         1 XI0       0.015100
     35 H3         -16.3070    -7.7410   -25.7470 hc         1 XI0       0.044033
     36 H1         -15.3370    -6.5610   -24.8490 hc         1 XI0       0.044033
     37 H2         -16.9820    -6.9350   -24.3200 hc         1 XI0       0.044033
     38 H          -22.1150    -5.7870   -31.0090 h1         1 XI0       0.078700
     39 H14        -21.7640    -3.1310   -34.9520 ha         1 XI0       0.118000
     40 H13        -22.3150    -4.9310   -33.3370 ha         1 XI0       0.115000
     41 H8         -23.3150    -5.1400   -27.7090 h1         1 XI0       0.044200
@<TRIPOS>BOND
     1     1    10 ar  
     2     1    14 ar  
     3     2     3 1   
     4     2    12 1   
     5     2    23 1   
     6     2    24 1   
     7     3    11 2   
     8     3    17 1   
     9     4     5 1   
    10     4    17 1   
    11     4    25 1   
    12     4    41 1   
    13     5     6 1   
    14     5    26 1   
    15     5    27 1   
    16     6    18 1   
    17     6    28 1   
    18     6    29 1   
    19     7     9 ar  
    20     7    18 1   
    21     7    22 ar  
    22     8    19 ar  
    23     8    21 ar  
    24     8    30 1   
    25     9    19 ar  
    26     9    31 1   
    27    10    15 ar  
    28    10    32 1   
    29    12    13 ar  
    30    12    14 ar  
    31    13    15 ar  
    32    13    33 1   
    33    14    34 1   
    34    15    16 1   
    35    16    35 1   
    36    16    36 1   
    37    16    37 1   
    38    17    18 1   
    39    18    38 1   
    40    19    20 1   
    41    21    22 ar  
    42    21    39 1   
    43    22    40 1   
@<TRIPOS>SUBSTRUCTURE
     1 XI0         1 TEMP              0 ****  ****    0 ROOT
