@<TRIPOS>MOLECULE
XI1
   38    39     1     0     0
SMALL
No Charge or Current Charge


@<TRIPOS>ATOM
      1 F1          -4.8260    -1.1210    -1.4680 f          1 XI1      -0.102667
      2 C2          -5.1380     0.1060    -0.9810 c3         1 XI1       0.113000
      3 F3          -4.4660     1.0230    -1.7200 f          1 XI1      -0.102667
      4 F4          -6.4600     0.3050    -1.2050 f          1 XI1      -0.102667
      5 S5          -4.7400     0.2460     0.8220 s6         1 XI1       1.205100
      6 O6          -4.7340     1.6480     1.2500 o          1 XI1      -0.487000
      7 O7          -5.5500    -0.7360     1.5510 o          1 XI1      -0.487000
      8 N8          -3.1620    -0.3170     0.9790 n7         1 XI1      -0.950300
      9 C9          -2.0240     0.2860     0.2570 c6         1 XI1       0.249500
     10 C11         -1.6190     1.6880     0.7960 c6         1 XI1      -0.089900
     11 C12         -0.3490     2.2310     0.0880 c6         1 XI1      -0.090400
     12 C13          0.8430     1.2510     0.2110 c6         1 XI1       0.175300
     13 C15          0.4390    -0.1400    -0.3470 c6         1 XI1      -0.090400
     14 C16         -0.8220    -0.6870     0.3700 c6         1 XI1      -0.089900
     15 O17          1.9700     1.7910    -0.5110 os         1 XI1      -0.344100
     16 C18          3.2440     1.2690    -0.3930 ca         1 XI1       0.188100
     17 C19          4.2080     1.7060    -1.3150 ca         1 XI1      -0.157000
     18 C20          5.5270     1.2260    -1.2550 ca         1 XI1      -0.025000
     19 C21          5.8960     0.3010    -0.2600 ca         1 XI1      -0.057000
     20 C22          7.2480    -0.1820    -0.2090 cg         1 XI1       0.330000
     21 N23          8.3500    -0.5670    -0.1800 n1         1 XI1      -0.441000
     22 C24          4.9330    -0.1330     0.6750 ca         1 XI1       0.191000
     23 Cl25         5.3410    -1.2860     1.9490 cl         1 XI1      -0.172000
     24 C26          3.6150     0.3500     0.6110 ca         1 XI1      -0.214000
     25 H8          -3.0270    -0.2300     1.9860 hn         1 XI1       0.520000
     26 H9          -2.2650     0.3730    -0.8140 h1         1 XI1       0.082700
     27 H111        -2.4280     2.4110     0.6390 hc         1 XI1       0.056950
     28 H112        -1.4440     1.6390     1.8800 hc         1 XI1       0.056950
     29 H161        -0.5900    -0.8730     1.4280 hc         1 XI1       0.056950
     30 H162        -1.0960    -1.6590    -0.0620 hc         1 XI1       0.056950
     31 H121        -0.5670     2.4160    -0.9730 hc         1 XI1       0.065450
     32 H122        -0.0720     3.2020     0.5220 hc         1 XI1       0.065450
     33 H13          1.1010     1.1720     1.2770 h1         1 XI1       0.049700
     34 H151         0.2480    -0.0640    -1.4270 hc         1 XI1       0.065450
     35 H152         1.2610    -0.8570    -0.2290 hc         1 XI1       0.065450
     36 H19          3.9270     2.4210    -2.0840 ha         1 XI1       0.139000
     37 H26          2.9060     0.0000     1.3530 ha         1 XI1       0.136000
     38 H20          6.2600     1.5740    -1.9810 ha         1 XI1       0.133000
@<TRIPOS>BOND
     1     1     2 1   
     2     2     3 1   
     3     2     4 1   
     4     2     5 1   
     5     5     6 2   
     6     5     7 2   
     7     5     8 1   
     8     8     9 1   
     9     8    25 1   
    10     9    10 1   
    11     9    14 1   
    12     9    26 1   
    13    10    11 1   
    14    10    27 1   
    15    10    28 1   
    16    11    12 1   
    17    11    31 1   
    18    11    32 1   
    19    12    13 1   
    20    12    15 1   
    21    12    33 1   
    22    13    14 1   
    23    13    34 1   
    24    13    35 1   
    25    14    29 1   
    26    14    30 1   
    27    15    16 1   
    28    16    17 ar  
    29    16    24 ar  
    30    17    18 ar  
    31    17    36 1   
    32    18    19 ar  
    33    18    38 1   
    34    19    20 1   
    35    19    22 ar  
    36    20    21 3   
    37    22    23 1   
    38    22    24 ar  
    39    24    37 1   
@<TRIPOS>SUBSTRUCTURE
     1 XI1         1 TEMP              0 ****  ****    0 ROOT
