@<TRIPOS>MOLECULE
XI1
   38    39     1     0     0
SMALL
bcc


@<TRIPOS>ATOM
      1 F1          -5.1710    -1.9460    -0.2070 f          1 XI1      -0.223967
      2 C2          -5.1780    -0.7390    -0.7480 c3         1 XI1       0.587700
      3 F3          -4.3310    -0.7170    -1.7680 f          1 XI1      -0.223967
      4 F4          -6.3960    -0.4630    -1.1870 f          1 XI1      -0.223967
      5 S5          -4.6730     0.5170     0.5020 s6         1 XI1       1.235900
      6 O6          -4.6840     1.7700    -0.2220 o          1 XI1      -0.557800
      7 O7          -5.5300     0.2800     1.6430 o          1 XI1      -0.557800
      8 N8          -3.1700     0.0780     0.8580 n7         1 XI1      -0.895100
      9 C9          -1.9730     0.6390     0.2290 c6         1 XI1       0.249500
     10 C11         -1.4450     1.8440     1.0000 c6         1 XI1      -0.089900
     11 C12         -0.1620     2.3770     0.3730 c6         1 XI1      -0.090400
     12 C13          0.8890     1.2820     0.2900 c6         1 XI1       0.152100
     13 C15          0.3670     0.0880    -0.4990 c6         1 XI1      -0.090400
     14 C16         -0.9140    -0.4530     0.1270 c6         1 XI1      -0.089900
     15 O17          2.0330     1.8630    -0.3430 os         1 XI1      -0.320900
     16 C18          3.2320     1.2880    -0.2810 ca         1 XI1       0.188100
     17 C19          4.2480     1.9110    -1.0180 ca         1 XI1      -0.175000
     18 C20          5.5210     1.3950    -1.0150 ca         1 XI1      -0.043000
     19 C21          5.8250     0.2440    -0.2800 ca         1 XI1      -0.057000
     20 C22          7.1420    -0.2890    -0.2940 cg         1 XI1       0.240800
     21 N23          8.2160    -0.7060    -0.3190 n1         1 XI1      -0.351800
     22 C24          4.8080    -0.3620     0.4550 ca         1 XI1       0.099400
     23 CL25         5.1530    -1.7780     1.3730 cl         1 XI1      -0.080400
     24 C26          3.5210     0.1430     0.4640 ca         1 XI1      -0.232000
     25 H8          -3.0620    -0.4360     1.7240 hn         1 XI1       0.464800
     26 H9          -2.2430     0.9530    -0.7820 h1         1 XI1       0.082700
     27 H111        -2.2000     2.6320     1.0220 hc         1 XI1       0.056950
     28 H112        -1.2620     1.5490     2.0380 hc         1 XI1       0.056950
     29 H161        -0.6990    -0.8470     1.1260 hc         1 XI1       0.056950
     30 H162        -1.2920    -1.2850    -0.4690 hc         1 XI1       0.056950
     31 H121        -0.3700     2.7550    -0.6330 hc         1 XI1       0.065450
     32 H122         0.2150     3.2150     0.9620 hc         1 XI1       0.065450
     33 H13          1.1490     0.9740     1.3110 h1         1 XI1       0.049700
     34 H151         0.1750     0.4040    -1.5290 hc         1 XI1       0.065450
     35 H152         1.1080    -0.7130    -0.5460 hc         1 XI1       0.065450
     36 H19          4.0220     2.8010    -1.5890 ha         1 XI1       0.157000
     37 H26          2.7700    -0.3630     1.0520 ha         1 XI1       0.154000
     38 H20          6.2990     1.8790    -1.5890 ha         1 XI1       0.151000
@<TRIPOS>BOND
     1     1     2 1   
     2     2     3 1   
     3     2     4 1   
     4     2     5 1   
     5     5     6 2   
     6     5     7 2   
     7     5     8 1   
     8     8     9 1   
     9     8    25 1   
    10     9    10 1   
    11     9    14 1   
    12     9    26 1   
    13    10    11 1   
    14    10    27 1   
    15    10    28 1   
    16    11    12 1   
    17    11    31 1   
    18    11    32 1   
    19    12    13 1   
    20    12    15 1   
    21    12    33 1   
    22    13    14 1   
    23    13    34 1   
    24    13    35 1   
    25    14    29 1   
    26    14    30 1   
    27    15    16 1   
    28    16    17 ar  
    29    16    24 ar  
    30    17    18 ar  
    31    17    36 1   
    32    18    19 ar  
    33    18    38 1   
    34    19    20 1   
    35    19    22 ar  
    36    20    21 3   
    37    22    23 1   
    38    22    24 ar  
    39    24    37 1   
@<TRIPOS>SUBSTRUCTURE
     1 XI1         1 TEMP              0 ****  ****    0 ROOT
