@<TRIPOS>MOLECULE
XI2
   41    43     1     0     0
SMALL
No Charge or Current Charge


@<TRIPOS>ATOM
      1 F26         -7.0590    -2.4120    -1.0140 f          1 XI2      -0.170000
      2 C22         -6.1490    -1.4770    -0.6650 ca         1 XI2       0.202000
      3 C21         -6.2540    -0.1750    -1.1820 ca         1 XI2      -0.164000
      4 C20         -5.3090     0.8030    -0.8200 ca         1 XI2      -0.054000
      5 C23         -5.1110    -1.8110     0.2150 ca         1 XI2      -0.193000
      6 C24         -4.1660    -0.8380     0.5770 ca         1 XI2       0.209000
      7 F25         -3.1800    -1.1680     1.4430 f          1 XI2      -0.155000
      8 C19         -4.2560     0.4730     0.0530 ca         1 XI2       0.057100
      9 O18         -3.3460     1.4510     0.3980 os         1 XI2      -0.327400
     10 C3          -1.9930     1.3280     0.1620 ca         1 XI2       0.385300
     11 N2          -1.5780     0.4780    -0.8180 nb         1 XI2      -0.272000
     12 N4          -1.1780     2.0920     0.9330 nb         1 XI2      -0.210000
     13 C6           0.1400     1.9780     0.7000 ca         1 XI2       0.194500
     14 N7           1.2430     2.5810     1.2770 na         1 XI2      -0.158100
     15 N8           2.4400     2.1300     0.6820 nc         1 XI2      -0.583100
     16 C9           2.0350     1.2610    -0.2430 cd         1 XI2       0.630800
     17 C5           0.6180     1.1450    -0.2590 ca         1 XI2      -0.397900
     18 C1          -0.2500     0.3790    -1.0340 ca         1 XI2       0.236900
     19 N10          2.9220     0.6190    -1.0380 nu         1 XI2      -0.872400
     20 C11          4.3780     0.7440    -1.0240 c3         1 XI2       0.254500
     21 C13          4.8070     1.5200    -2.2810 c3         1 XI2      -0.118100
     22 C12          5.0010    -0.6570    -0.9930 c3         1 XI2      -0.311400
     23 S14          4.9220    -1.4280     0.6340 s6         1 XI2       1.092000
     24 O15          5.6050    -0.5500     1.5920 o          1 XI2      -0.507500
     25 O16          3.5400    -1.8520     0.8930 o          1 XI2      -0.507500
     26 C17          5.9140    -2.9100     0.4620 c3         1 XI2      -0.341100
     27 H21         -7.0660     0.0740    -1.8590 ha         1 XI2       0.140000
     28 H20         -5.3870     1.8120    -1.2170 ha         1 XI2       0.136000
     29 H23         -5.0390    -2.8170     0.6180 ha         1 XI2       0.153000
     30 HN7          1.2240     3.2650     2.0330 hn         1 XI2       0.392000
     31 H1           0.0930    -0.3000    -1.8130 h4         1 XI2       0.031100
     32 HN10         2.4960     0.0280    -1.7440 hn         1 XI2       0.483000
     33 H11          4.7260     1.3140    -0.1470 h1         1 XI2       0.103700
     34 H13          4.5090     0.9910    -3.1930 hc         1 XI2       0.046700
     35 H13A         4.3500     2.5170    -2.2930 hc         1 XI2       0.046700
     36 H13B         5.8960     1.6480    -2.2980 hc         1 XI2       0.046700
     37 H12          4.5170    -1.3350    -1.7040 h1         1 XI2       0.096700
     38 H12A         6.0690    -0.5930    -1.2260 h1         1 XI2       0.096700
     39 H17          6.9290    -2.6040     0.1880 h1         1 XI2       0.102700
     40 H17A         5.9050    -3.4270     1.4270 h1         1 XI2       0.102700
     41 H17B         5.4600    -3.5270    -0.3210 h1         1 XI2       0.102700
@<TRIPOS>BOND
     1     1     2 1   
     2     2     3 ar  
     3     2     5 ar  
     4     3     4 ar  
     5     3    27 1   
     6     4     8 ar  
     7     4    28 1   
     8     5     6 ar  
     9     5    29 1   
    10     6     7 1   
    11     6     8 ar  
    12     8     9 1   
    13     9    10 1   
    14    10    11 ar  
    15    10    12 ar  
    16    11    18 ar  
    17    12    13 ar  
    18    13    14 1   
    19    13    17 ar  
    20    14    15 1   
    21    14    30 1   
    22    15    16 2   
    23    16    17 1   
    24    16    19 1   
    25    17    18 ar  
    26    18    31 1   
    27    19    20 1   
    28    19    32 1   
    29    20    21 1   
    30    20    22 1   
    31    20    33 1   
    32    21    34 1   
    33    21    35 1   
    34    21    36 1   
    35    22    23 1   
    36    22    37 1   
    37    22    38 1   
    38    23    24 2   
    39    23    25 2   
    40    23    26 1   
    41    26    39 1   
    42    26    40 1   
    43    26    41 1   
@<TRIPOS>SUBSTRUCTURE
     1 XI2         1 TEMP              0 ****  ****    0 ROOT
