@<TRIPOS>MOLECULE
XI2
   41    43     1     0     0
SMALL
abcg2


@<TRIPOS>ATOM
      1 F26         -7.0750    -2.1650    -0.9590 f          1 XI2      -0.170000
      2 C22         -6.1440    -1.2630    -0.6240 ca         1 XI2       0.202000
      3 C21         -6.0380    -0.1000    -1.3590 ca         1 XI2      -0.164000
      4 C20         -5.0630     0.8230    -1.0040 ca         1 XI2      -0.054000
      5 C23         -5.3200    -1.5400     0.4530 ca         1 XI2      -0.193000
      6 C24         -4.3670    -0.6010     0.7830 ca         1 XI2       0.209000
      7 F25         -3.5530    -0.8240     1.8150 f          1 XI2      -0.155000
      8 C19         -4.2260     0.5800     0.0680 ca         1 XI2       0.057100
      9 O18         -3.3150     1.5230     0.4660 os         1 XI2      -0.327400
     10 C3          -2.0060     1.3040     0.2380 ca         1 XI2       0.385300
     11 N2          -1.6740     0.2160    -0.4500 nb         1 XI2      -0.272000
     12 N4          -1.2300     2.2360     0.7380 nb         1 XI2      -0.210000
     13 C6           0.0590     2.0140     0.4960 ca         1 XI2       0.194500
     14 N7           1.1130     2.7420     0.8550 na         1 XI2      -0.158100
     15 N8           2.2870     2.1980     0.4180 nc         1 XI2      -0.583100
     16 C9           1.9800     1.0950    -0.2150 cd         1 XI2       0.630800
     17 C5           0.5580     0.9050    -0.2150 ca         1 XI2      -0.397900
     18 C1          -0.3850     0.0100    -0.6770 ca         1 XI2       0.236900
     19 N10          2.8990     0.2430    -0.7390 nu         1 XI2      -0.872400
     20 C11          4.2860     0.6370    -0.8750 c3         1 XI2       0.254500
     21 C13          4.5310     1.5860    -2.0450 c3         1 XI2      -0.118100
     22 C12          5.1470    -0.6100    -1.0300 c3         1 XI2      -0.311400
     23 S14          4.9310    -1.7470     0.3500 s6         1 XI2       1.092000
     24 O15          5.0150    -0.9790     1.5950 o          1 XI2      -0.507500
     25 O16          3.7500    -2.5800     0.1300 o          1 XI2      -0.507500
     26 C17          6.3680    -2.7920     0.2390 c3         1 XI2      -0.341100
     27 H21         -6.6970     0.0870    -2.1950 ha         1 XI2       0.140000
     28 H20         -4.9590     1.7430    -1.5640 ha         1 XI2       0.136000
     29 H23         -5.4150    -2.4570     1.0190 ha         1 XI2       0.153000
     30 HN7          1.1250     3.6090     1.3660 hn         1 XI2       0.392000
     31 H1          -0.1230    -0.8820    -1.2360 h4         1 XI2       0.031100
     32 HN10         2.5490    -0.3770    -1.4530 hn         1 XI2       0.483000
     33 H11          4.5760     1.1360     0.0500 h1         1 XI2       0.103700
     34 H13          4.2770     1.1120    -2.9940 hc         1 XI2       0.046700
     35 H13A         3.9230     2.4840    -1.9370 hc         1 XI2       0.046700
     36 H13B         5.5770     1.8930    -2.0870 hc         1 XI2       0.046700
     37 H12          4.9190    -1.1650    -1.9420 h1         1 XI2       0.096700
     38 H12A         6.2020    -0.3310    -1.0540 h1         1 XI2       0.096700
     39 H17          7.2680    -2.1930     0.3490 h1         1 XI2       0.102700
     40 H17A         6.2980    -3.5170     1.0480 h1         1 XI2       0.102700
     41 H17B         6.3680    -3.3050    -0.7200 h1         1 XI2       0.102700
@<TRIPOS>BOND
     1     1     2 1   
     2     2     3 ar  
     3     2     5 ar  
     4     3     4 ar  
     5     3    27 1   
     6     4     8 ar  
     7     4    28 1   
     8     5     6 ar  
     9     5    29 1   
    10     6     7 1   
    11     6     8 ar  
    12     8     9 1   
    13     9    10 1   
    14    10    11 ar  
    15    10    12 ar  
    16    11    18 ar  
    17    12    13 ar  
    18    13    14 1   
    19    13    17 ar  
    20    14    15 1   
    21    14    30 1   
    22    15    16 2   
    23    16    17 1   
    24    16    19 1   
    25    17    18 ar  
    26    18    31 1   
    27    19    20 1   
    28    19    32 1   
    29    20    21 1   
    30    20    22 1   
    31    20    33 1   
    32    21    34 1   
    33    21    35 1   
    34    21    36 1   
    35    22    23 1   
    36    22    37 1   
    37    22    38 1   
    38    23    24 2   
    39    23    25 2   
    40    23    26 1   
    41    26    39 1   
    42    26    40 1   
    43    26    41 1   
@<TRIPOS>SUBSTRUCTURE
     1 XI2         1 TEMP              0 ****  ****    0 ROOT
