@<TRIPOS>MOLECULE
XI3
   61    66     1     0     0
SMALL
No Charge or Current Charge


@<TRIPOS>ATOM
      1 C02         17.0110    -0.7300   -13.5560 c          1 XI3       0.601100
      2 C04         18.2900    -2.5550   -12.3990 c3         1 XI3       0.148300
      3 C05         19.0200    -2.7610   -11.0810 ca         1 XI3      -0.122300
      4 C06         19.9720    -1.8110   -10.6370 ca         1 XI3      -0.085000
      5 C07         20.6580    -1.9990    -9.4200 ca         1 XI3      -0.074000
      6 C08         20.3820    -3.1440    -8.6580 ca         1 XI3      -0.155000
      7 C10         20.1500    -5.0450    -7.0330 cc         1 XI3      -0.159400
      8 C11         19.3500    -5.1610    -8.1530 cd         1 XI3      -0.182200
      9 C12         19.4650    -4.0750    -9.0940 ca         1 XI3      -0.087800
     10 C13         18.7670    -3.9100   -10.2990 ca         1 XI3      -0.076000
     11 C14         16.4210     0.6880   -13.4140 c6         1 XI3      -0.168700
     12 C15         17.2630     1.5920   -12.4660 c6         1 XI3       0.235800
     13 C17         18.1590     1.4320   -10.1090 ca         1 XI3       0.464900
     14 C19         20.0400     2.5920    -9.4820 ca         1 XI3       0.180900
     15 C21         19.3640     0.9080    -8.0690 ca         1 XI3       0.006000
     16 C24         17.8910    -1.8310    -6.4000 ca         1 XI3       0.025800
     17 C25         18.2370    -1.7980    -5.0310 ca         1 XI3      -0.116000
     18 C26         17.9000    -2.8640    -4.1830 ca         1 XI3       0.172000
     19 C28         17.2060    -3.9850    -4.6760 ca         1 XI3      -0.109300
     20 C29         16.8460    -5.1450    -3.7560 c3         1 XI3      -0.041800
     21 C30         16.8520    -4.0220    -6.0370 ca         1 XI3      -0.077000
     22 C31         17.1910    -2.9580    -6.8900 ca         1 XI3      -0.132000
     23 C32         17.5840    -0.4390    -8.4230 cc         1 XI3      -0.129100
     24 C33         18.3180     0.6700    -8.9410 ca         1 XI3      -0.281000
     25 C34         15.7100     1.2480   -10.5570 c6         1 XI3       0.222800
     26 C35         14.8380     0.2990   -11.4050 c6         1 XI3      -0.104400
     27 C36         14.9450     0.6520   -12.9080 c6         1 XI3      -0.075400
     28 F27         18.2510    -2.8030    -2.8780 f          1 XI3      -0.176000
     29 N03         17.5860    -1.2780   -12.4370 ns         1 XI3      -0.502900
     30 N16         17.1160     1.1970   -11.0300 nh         1 XI3      -0.787300
     31 N18         19.0480     2.4070   -10.3850 nb         1 XI3      -0.300000
     32 N20         20.2420     1.8950    -8.3370 nb         1 XI3      -0.190000
     33 N22         19.3560     0.0290    -6.9790 nc         1 XI3      -0.266400
     34 N23         18.2450    -0.7710    -7.2530 na         1 XI3       0.226700
     35 O01         17.0840    -1.2850   -14.6440 o          1 XI3      -0.602100
     36 S09         21.1210    -3.5460    -7.0810 ss         1 XI3       0.077400
     37 H1          17.5620    -3.3620   -12.5590 h1         1 XI3       0.065700
     38 H2          19.0170    -2.5880   -13.2220 h1         1 XI3       0.065700
     39 H3          20.1750    -0.9230   -11.2310 ha         1 XI3       0.136000
     40 H4          21.3780    -1.2620    -9.0720 ha         1 XI3       0.142000
     41 H5          20.2430    -5.7140    -6.1850 h4         1 XI3       0.215000
     42 H6          18.6810    -6.0040    -8.3050 ha         1 XI3       0.198000
     43 H7          18.0440    -4.6560   -10.6210 ha         1 XI3       0.108000
     44 H8          16.4190     1.1200   -14.4230 hc         1 XI3       0.083700
     45 H9          18.3160     1.5370   -12.7810 h1         1 XI3       0.083200
     46 H10         16.9490     2.6390   -12.5960 h1         1 XI3       0.083200
     47 H11         20.7540     3.3840    -9.7000 h5         1 XI3       0.047100
     48 H12         18.7700    -0.9490    -4.6130 ha         1 XI3       0.167000
     49 H13         17.7470    -5.5940    -3.3200 hc         1 XI3       0.051033
     50 H14         16.2080    -4.8090    -2.9310 hc         1 XI3       0.051033
     51 H15         16.3070    -5.9380    -4.2880 hc         1 XI3       0.051033
     52 H16         16.3230    -4.8820    -6.4420 ha         1 XI3       0.121000
     53 H17         16.9270    -3.0330    -7.9410 ha         1 XI3       0.127000
     54 H18         16.7110    -0.9770    -8.7680 h4         1 XI3       0.225000
     55 H19         15.3220     2.2740   -10.6430 h1         1 XI3       0.056200
     56 H20         15.6280     0.9640    -9.4990 h1         1 XI3       0.056200
     57 H21         13.7920     0.3730   -11.0790 hc         1 XI3       0.050200
     58 H22         15.1430    -0.7410   -11.2330 hc         1 XI3       0.050200
     59 H23         14.4830     1.6350   -13.0770 hc         1 XI3       0.048200
     60 H24         14.3600    -0.0630   -13.5030 hc         1 XI3       0.048200
     61 H25         17.5350    -0.7100   -11.5940 hn         1 XI3       0.309500
@<TRIPOS>BOND
     1     1    11 1   
     2     1    29 1   
     3     1    35 2   
     4     2     3 1   
     5     2    29 1   
     6     2    37 1   
     7     2    38 1   
     8     3     4 ar  
     9     3    10 ar  
    10     4     5 ar  
    11     4    39 1   
    12     5     6 ar  
    13     5    40 1   
    14     6     9 ar  
    15     6    36 1   
    16     7     8 2   
    17     7    36 1   
    18     7    41 1   
    19     8     9 1   
    20     8    42 1   
    21     9    10 ar  
    22    10    43 1   
    23    11    12 1   
    24    11    27 1   
    25    11    44 1   
    26    12    30 1   
    27    12    45 1   
    28    12    46 1   
    29    13    24 ar  
    30    13    30 1   
    31    13    31 ar  
    32    14    31 ar  
    33    14    32 ar  
    34    14    47 1   
    35    15    24 ar  
    36    15    32 ar  
    37    15    33 2   
    38    16    17 ar  
    39    16    22 ar  
    40    16    34 1   
    41    17    18 ar  
    42    17    48 1   
    43    18    19 ar  
    44    18    28 1   
    45    19    20 1   
    46    19    21 ar  
    47    20    49 1   
    48    20    50 1   
    49    20    51 1   
    50    21    22 ar  
    51    21    52 1   
    52    22    53 1   
    53    23    24 2   
    54    23    34 1   
    55    23    54 1   
    56    25    26 1   
    57    25    30 1   
    58    25    55 1   
    59    25    56 1   
    60    26    27 1   
    61    26    57 1   
    62    26    58 1   
    63    27    59 1   
    64    27    60 1   
    65    29    61 1   
    66    33    34 1   
@<TRIPOS>SUBSTRUCTURE
     1 XI3         1 TEMP              0 ****  ****    0 ROOT
