@<TRIPOS>MOLECULE
XI3
   61    66     1     0     0
SMALL
abcg2


@<TRIPOS>ATOM
      1 C02         17.7740    -0.2050   -13.2110 c          1 XI3       0.601100
      2 C04         18.6310    -2.5010   -12.8750 c3         1 XI3       0.148300
      3 C05         19.1210    -2.7560   -11.4680 ca         1 XI3      -0.122300
      4 C06         19.9970    -1.8400   -10.8520 ca         1 XI3      -0.085000
      5 C07         20.4690    -2.0470    -9.5690 ca         1 XI3      -0.074000
      6 C08         20.0550    -3.1880    -8.8820 ca         1 XI3      -0.155000
      7 C10         19.5390    -5.1230    -7.4080 cc         1 XI3      -0.159400
      8 C11         18.8890    -5.2210    -8.5930 cd         1 XI3      -0.182200
      9 C12         19.1680    -4.1190    -9.4710 ca         1 XI3      -0.087800
     10 C13         18.7090    -3.8820   -10.7760 ca         1 XI3      -0.076000
     11 C14         16.5660     0.7370   -13.1450 c6         1 XI3      -0.168700
     12 C15         16.9220     1.9360   -12.2460 c6         1 XI3       0.235800
     13 C17         18.0030     1.4570   -10.0890 ca         1 XI3       0.464900
     14 C19         20.1790     2.1550    -9.6940 ca         1 XI3       0.180900
     15 C21         19.3330     0.7740    -8.1630 ca         1 XI3       0.006000
     16 C24         17.8360    -1.7000    -6.2350 ca         1 XI3       0.025800
     17 C25         18.3860    -1.6310    -4.9580 ca         1 XI3      -0.116000
     18 C26         18.1020    -2.6530    -4.0790 ca         1 XI3       0.172000
     19 C28         17.2950    -3.7440    -4.3850 ca         1 XI3      -0.109300
     20 C29         17.0430    -4.8320    -3.3830 c3         1 XI3      -0.041800
     21 C30         16.7570    -3.7650    -5.6710 ca         1 XI3      -0.077000
     22 C31         17.0210    -2.7650    -6.5960 ca         1 XI3      -0.132000
     23 C32         17.3820    -0.2970    -8.2150 cc         1 XI3      -0.129100
     24 C33         18.1070     0.6780    -8.8920 ca         1 XI3      -0.281000
     25 C34         15.5720     1.0660   -10.4170 c6         1 XI3       0.222800
     26 C35         15.1300    -0.1570   -11.2110 c6         1 XI3      -0.104400
     27 C36         15.2190     0.1320   -12.7160 c6         1 XI3      -0.075400
     28 F27         18.6450    -2.5850    -2.8360 f          1 XI3      -0.176000
     29 N03         17.5690    -1.5020   -12.9260 ns         1 XI3      -0.502900
     30 N16         16.8920     1.5150   -10.8490 nh         1 XI3      -0.787300
     31 N18         19.0820     2.1520   -10.4730 nb         1 XI3      -0.300000
     32 N20         20.3850     1.5410    -8.5460 nb         1 XI3      -0.190000
     33 N22         19.3430    -0.0440    -7.1090 nc         1 XI3      -0.266400
     34 N23         18.1470    -0.6880    -7.1770 na         1 XI3       0.226700
     35 O01         18.8790     0.2370   -13.5330 o          1 XI3      -0.602100
     36 S09         20.5180    -3.6950    -7.2830 ss         1 XI3       0.077400
     37 H1          18.2460    -3.4240   -13.3070 h1         1 XI3       0.065700
     38 H2          19.4440    -2.1410   -13.5020 h1         1 XI3       0.065700
     39 H3          20.3050    -0.9570   -11.3970 ha         1 XI3       0.136000
     40 H4          21.1450    -1.3390    -9.1120 ha         1 XI3       0.142000
     41 H5          19.4950    -5.8040    -6.5720 h4         1 XI3       0.215000
     42 H6          18.2280    -6.0370    -8.8490 ha         1 XI3       0.198000
     43 H7          18.0380    -4.5930   -11.2460 ha         1 XI3       0.108000
     44 H8          16.4650     1.1240   -14.1630 hc         1 XI3       0.083700
     45 H9          17.9060     2.3180   -12.4860 h1         1 XI3       0.083200
     46 H10         16.1840     2.7290   -12.3910 h1         1 XI3       0.083200
     47 H11         21.0000     2.7590   -10.0700 h5         1 XI3       0.047100
     48 H12         19.0250    -0.8120    -4.6650 ha         1 XI3       0.167000
     49 H13         17.9790    -5.2960    -3.0650 hc         1 XI3       0.051033
     50 H14         16.5580    -4.4380    -2.4870 hc         1 XI3       0.051033
     51 H15         16.4040    -5.6020    -3.8120 hc         1 XI3       0.051033
     52 H16         16.1390    -4.6040    -5.9630 ha         1 XI3       0.121000
     53 H17         16.6340    -2.8440    -7.6020 ha         1 XI3       0.127000
     54 H18         16.4160    -0.7350    -8.3820 h4         1 XI3       0.225000
     55 H19         14.8810     1.8930   -10.6080 h1         1 XI3       0.056200
     56 H20         15.5680     0.8920    -9.3480 h1         1 XI3       0.056200
     57 H21         14.1030    -0.4110   -10.9430 hc         1 XI3       0.050200
     58 H22         15.7550    -1.0060   -10.9260 hc         1 XI3       0.050200
     59 H23         14.4470     0.8630   -12.9690 hc         1 XI3       0.048200
     60 H24         14.9880    -0.7620   -13.3000 hc         1 XI3       0.048200
     61 H25         16.6550    -1.8010   -12.6340 hn         1 XI3       0.309500
@<TRIPOS>BOND
     1     1    11 1   
     2     1    29 1   
     3     1    35 2   
     4     2     3 1   
     5     2    29 1   
     6     2    37 1   
     7     2    38 1   
     8     3     4 ar  
     9     3    10 ar  
    10     4     5 ar  
    11     4    39 1   
    12     5     6 ar  
    13     5    40 1   
    14     6     9 ar  
    15     6    36 1   
    16     7     8 2   
    17     7    36 1   
    18     7    41 1   
    19     8     9 1   
    20     8    42 1   
    21     9    10 ar  
    22    10    43 1   
    23    11    12 1   
    24    11    27 1   
    25    11    44 1   
    26    12    30 1   
    27    12    45 1   
    28    12    46 1   
    29    13    24 ar  
    30    13    30 1   
    31    13    31 ar  
    32    14    31 ar  
    33    14    32 ar  
    34    14    47 1   
    35    15    24 ar  
    36    15    32 ar  
    37    15    33 2   
    38    16    17 ar  
    39    16    22 ar  
    40    16    34 1   
    41    17    18 ar  
    42    17    48 1   
    43    18    19 ar  
    44    18    28 1   
    45    19    20 1   
    46    19    21 ar  
    47    20    49 1   
    48    20    50 1   
    49    20    51 1   
    50    21    22 ar  
    51    21    52 1   
    52    22    53 1   
    53    23    24 2   
    54    23    34 1   
    55    23    54 1   
    56    25    26 1   
    57    25    30 1   
    58    25    55 1   
    59    25    56 1   
    60    26    27 1   
    61    26    57 1   
    62    26    58 1   
    63    27    59 1   
    64    27    60 1   
    65    29    61 1   
    66    33    34 1   
@<TRIPOS>SUBSTRUCTURE
     1 XI3         1 TEMP              0 ****  ****    0 ROOT
