@<TRIPOS>MOLECULE
XI7
   21    21     1     0     0
SMALL
No Charge or Current Charge


@<TRIPOS>ATOM
      1 O8           1.3920    -0.0940     1.8050 o          1 XI7      -0.540100
      2 C9           1.7620     0.1350     0.6520 c          1 XI7       0.439100
      3 C10          3.1050    -0.5230     0.0240 c          1 XI7       0.652000
      4 O11          3.4100    -1.6650     0.3630 o          1 XI7      -0.695000
      5 O10          3.7850     0.1480    -0.7490 o          1 XI7      -0.695000
      6 C8           0.9240     1.0450    -0.2480 c3         1 XI7      -0.292400
      7 C7          -0.1410     0.1590    -0.8760 c          1 XI7       0.585700
      8 C1          -1.5710     0.2070    -0.3810 ca         1 XI7      -0.158600
      9 C6          -2.3550    -0.9690    -0.4270 ca         1 XI7      -0.068000
     10 C5          -3.6870    -0.9600     0.0220 ca         1 XI7      -0.134000
     11 C4          -4.2570     0.2240     0.5140 ca         1 XI7      -0.104000
     12 C3          -3.4940     1.4020     0.5510 ca         1 XI7      -0.134000
     13 C2          -2.1610     1.3980     0.1050 ca         1 XI7      -0.068000
     14 O14          0.1720    -0.5950    -1.7890 o          1 XI7      -0.518100
     15 H81C         0.4820     1.8250     0.3750 hc         1 XI7       0.081700
     16 H82C         1.5500     1.4340    -1.0570 hc         1 XI7       0.081700
     17 H6          -1.9290    -1.8970    -0.8040 ha         1 XI7       0.128500
     18 H2          -1.6070     2.3330     0.1230 ha         1 XI7       0.128500
     19 H5          -4.2770    -1.8730    -0.0130 ha         1 XI7       0.105000
     20 H4          -5.2880     0.2310     0.8600 ha         1 XI7       0.100000
     21 H3          -3.9380     2.3230     0.9220 ha         1 XI7       0.105000
@<TRIPOS>BOND
     1     1     2 2   
     2     2     3 1   
     3     2     6 1   
     4     3     4 1   
     5     3     5 1   
     6     6     7 1   
     7     6    15 1   
     8     6    16 1   
     9     7     8 1   
    10     7    14 2   
    11     8     9 ar  
    12     8    13 ar  
    13     9    10 ar  
    14     9    17 1   
    15    10    11 ar  
    16    10    19 1   
    17    11    12 ar  
    18    11    20 1   
    19    12    13 ar  
    20    12    21 1   
    21    13    18 1   
@<TRIPOS>SUBSTRUCTURE
     1 XI7         1 TEMP              0 ****  ****    0 ROOT
