@<TRIPOS>MOLECULE
XI7
   21    21     1     0     0
SMALL
abcg2


@<TRIPOS>ATOM
      1 O8           2.2450    -1.1550     1.1210 o          1 XI7      -0.540100
      2 C9           2.1630    -0.2250     0.3580 c          1 XI7       0.439100
      3 C10          3.4390     0.4570    -0.2150 c          1 XI7       0.652000
      4 O11          4.5040    -0.1300     0.0150 o          1 XI7      -0.695000
      5 O10          3.2450     1.5190    -0.8300 o          1 XI7      -0.695000
      6 C8           0.8280     0.3780    -0.0170 c3         1 XI7      -0.292400
      7 C7          -0.2890    -0.6220    -0.1850 c          1 XI7       0.585700
      8 C1          -1.6940    -0.1390    -0.0660 ca         1 XI7      -0.158600
      9 C6          -2.7320    -1.0720    -0.1210 ca         1 XI7      -0.068000
     10 C5          -4.0510    -0.6630    -0.0280 ca         1 XI7      -0.134000
     11 C4          -4.3540     0.6870     0.1090 ca         1 XI7      -0.104000
     12 C3          -3.3310     1.6230     0.1560 ca         1 XI7      -0.134000
     13 C2          -2.0080     1.2130     0.0730 ca         1 XI7      -0.068000
     14 O14         -0.0610    -1.7800    -0.4610 o          1 XI7      -0.518100
     15 H81C         0.5880     1.1140     0.7570 hc         1 XI7       0.081700
     16 H82C         0.9090     0.9590    -0.9390 hc         1 XI7       0.081700
     17 H6          -2.5040    -2.1240    -0.2320 ha         1 XI7       0.128500
     18 H2          -1.2290     1.9630     0.1060 ha         1 XI7       0.128500
     19 H5          -4.8460    -1.3960    -0.0650 ha         1 XI7       0.105000
     20 H4          -5.3850     1.0060     0.1790 ha         1 XI7       0.100000
     21 H3          -3.5600     2.6760     0.2590 ha         1 XI7       0.105000
@<TRIPOS>BOND
     1     1     2 2   
     2     2     3 1   
     3     2     6 1   
     4     3     4 1   
     5     3     5 1   
     6     6     7 1   
     7     6    15 1   
     8     6    16 1   
     9     7     8 1   
    10     7    14 2   
    11     8     9 ar  
    12     8    13 ar  
    13     9    10 ar  
    14     9    17 1   
    15    10    11 ar  
    16    10    19 1   
    17    11    12 ar  
    18    11    20 1   
    19    12    13 ar  
    20    12    21 1   
    21    13    18 1   
@<TRIPOS>SUBSTRUCTURE
     1 XI7         1 TEMP              0 ****  ****    0 ROOT
