@<TRIPOS>MOLECULE
XIA
   42    43     1     0     0
SMALL
abcg2


@<TRIPOS>ATOM
      1 O39          5.8780    -0.3040     0.3450 o          1 XIA      -0.723500
      2 C11          5.2240     0.7360     0.1300 c          1 XIA       0.714600
      3 O13          5.6880     1.8840    -0.0250 o          1 XIA      -0.723500
      4 C6           3.7150     0.5920     0.0440 ca         1 XIA      -0.155600
      5 C5           3.0990    -0.6370     0.2510 ca         1 XIA      -0.053000
      6 C4           1.7200    -0.8030     0.1770 ca         1 XIA      -0.188300
      7 C7           1.0730    -2.1390     0.3990 c6         1 XIA      -0.050100
      8 C8          -0.4230    -1.9970     0.6370 c6         1 XIA       0.142300
      9 O16         -1.0930    -3.2300     0.5360 oh         1 XIA      -0.668000
     10 C9          -1.0440    -1.0260    -0.3810 c6         1 XIA       0.206000
     11 C15         -0.8360    -1.4900    -1.8190 c3         1 XIA      -0.107100
     12 O10         -0.4150     0.2500    -0.1960 os         1 XIA      -0.366100
     13 C3           0.9320     0.3080    -0.1210 ca         1 XIA       0.104100
     14 C2           1.5270     1.5520    -0.3300 ca         1 XIA      -0.172000
     15 C1           2.9000     1.6870    -0.2420 ca         1 XIA      -0.056000
     16 C17         -2.5230    -0.8030    -0.0620 c3         1 XIA      -0.056400
     17 C18         -3.1970     0.3480    -0.8170 c3         1 XIA      -0.037200
     18 C19         -4.6670     0.3790    -0.5310 c2         1 XIA      -0.211200
     19 C21         -5.3520     1.2920     0.1630 c2         1 XIA      -0.128400
     20 C23         -4.7520     2.5110     0.8000 c3         1 XIA      -0.052400
     21 C22         -6.8330     1.1550     0.3670 c3         1 XIA      -0.052400
     22 H2           3.7110    -1.5010     0.4830 ha         1 XIA       0.125000
     23 H3           1.2410    -2.7900    -0.4660 hc         1 XIA       0.046700
     24 H4           1.5370    -2.6410     1.2530 hc         1 XIA       0.046700
     25 H5          -0.5810    -1.5550     1.6330 h1         1 XIA       0.041700
     26 H6          -0.7280    -3.8250     1.1980 ho         1 XIA       0.439000
     27 H7          -1.3070    -0.8040    -2.5230 hc         1 XIA       0.044033
     28 H8           0.2200    -1.5500    -2.0850 hc         1 XIA       0.044033
     29 H9          -1.2720    -2.4760    -1.9750 hc         1 XIA       0.044033
     30 H10          0.9020     2.4080    -0.5590 ha         1 XIA       0.100000
     31 H11          3.3490     2.6570    -0.4090 ha         1 XIA       0.129000
     32 H12         -3.0580    -1.7320    -0.2720 hc         1 XIA       0.048200
     33 H13         -2.6310    -0.6230     1.0120 hc         1 XIA       0.048200
     34 H14         -2.7240     1.2940    -0.5560 hc         1 XIA       0.054200
     35 H15         -3.0570     0.2200    -1.8940 hc         1 XIA       0.054200
     36 H16         -5.2260    -0.4660    -0.9290 ha         1 XIA       0.157000
     37 H17         -5.2150     3.4190     0.4060 hc         1 XIA       0.035200
     38 H18         -4.9390     2.5110     1.8770 hc         1 XIA       0.035200
     39 H19         -3.6770     2.5960     0.6520 hc         1 XIA       0.035200
     40 H20         -7.2350     0.2700    -0.1260 hc         1 XIA       0.035200
     41 H21         -7.0780     1.0910     1.4310 hc         1 XIA       0.035200
     42 H22         -7.3650     2.0280    -0.0200 hc         1 XIA       0.035200
@<TRIPOS>BOND
     1     1     2 1   
     2     2     3 1   
     3     2     4 1   
     4     4     5 ar  
     5     4    15 ar  
     6     5     6 ar  
     7     5    22 1   
     8     6     7 1   
     9     6    13 ar  
    10     7     8 1   
    11     7    23 1   
    12     7    24 1   
    13     8     9 1   
    14     8    10 1   
    15     8    25 1   
    16     9    26 1   
    17    10    11 1   
    18    10    12 1   
    19    10    16 1   
    20    11    27 1   
    21    11    28 1   
    22    11    29 1   
    23    12    13 1   
    24    13    14 ar  
    25    14    15 ar  
    26    14    30 1   
    27    15    31 1   
    28    16    17 1   
    29    16    32 1   
    30    16    33 1   
    31    17    18 1   
    32    17    34 1   
    33    17    35 1   
    34    18    19 2   
    35    18    36 1   
    36    19    20 1   
    37    19    21 1   
    38    20    37 1   
    39    20    38 1   
    40    20    39 1   
    41    21    40 1   
    42    21    41 1   
    43    21    42 1   
@<TRIPOS>SUBSTRUCTURE
     1 XIA         1 TEMP              0 ****  ****    0 ROOT
