@<TRIPOS>MOLECULE
XIA
   42    43     1     0     0
SMALL
No Charge or Current Charge


@<TRIPOS>ATOM
      1 O39          5.8430    -0.0530     0.6730 o          1 XIA      -0.723500
      2 C11          5.1720     0.9030     0.3100 c          1 XIA       0.714600
      3 O13          5.6550     2.0040     0.0860 o          1 XIA      -0.723500
      4 C6           3.6750     0.7150     0.1270 ca         1 XIA      -0.155600
      5 C5           3.0680    -0.5390     0.3740 ca         1 XIA      -0.053000
      6 C4           1.6810    -0.7180     0.2080 ca         1 XIA      -0.188300
      7 C7           1.0570    -2.0850     0.4980 c6         1 XIA      -0.050100
      8 C8          -0.4820    -2.0080     0.6320 c6         1 XIA       0.142300
      9 O16         -1.0440    -3.3340     0.6010 oh         1 XIA      -0.668000
     10 C9          -1.0940    -1.0670    -0.4680 c6         1 XIA       0.206000
     11 C15         -0.8690    -1.5970    -1.9230 c3         1 XIA      -0.107100
     12 O10         -0.4780     0.2430    -0.4000 os         1 XIA      -0.366100
     13 C3           0.8850     0.3650    -0.2250 ca         1 XIA       0.104100
     14 C2           1.4750     1.6140    -0.4600 ca         1 XIA      -0.172000
     15 C1           2.8580     1.7920    -0.2900 ca         1 XIA      -0.056000
     16 C17         -2.6270    -0.8480    -0.2160 c3         1 XIA      -0.056400
     17 C18         -3.3600     0.1620    -1.1360 c3         1 XIA      -0.037200
     18 C19         -4.8030     0.3740    -0.7110 c2         1 XIA      -0.211200
     19 C21         -5.2680     1.2570     0.1930 c2         1 XIA      -0.128400
     20 C23         -4.4120     2.2180     1.0070 c3         1 XIA      -0.052400
     21 C22         -6.7450     1.3910     0.5130 c3         1 XIA      -0.052400
     22 H2           3.6750    -1.3810     0.7010 ha         1 XIA       0.125000
     23 H3           1.3340    -2.7820    -0.3050 hc         1 XIA       0.046700
     24 H4           1.4820    -2.5010     1.4220 hc         1 XIA       0.046700
     25 H5          -0.7010    -1.5460     1.6060 h1         1 XIA       0.041700
     26 H6          -0.6470    -3.8290     1.3520 ho         1 XIA       0.439000
     27 H7          -1.1900    -0.8670    -2.6750 hc         1 XIA       0.044033
     28 H8           0.1860    -1.8090    -2.1250 hc         1 XIA       0.044033
     29 H9          -1.4290    -2.5230    -2.1000 hc         1 XIA       0.044033
     30 H10          0.8590     2.4500    -0.7810 ha         1 XIA       0.100000
     31 H11          3.2930     2.7700    -0.4840 ha         1 XIA       0.129000
     32 H12         -3.1500    -1.8090    -0.2900 hc         1 XIA       0.048200
     33 H13         -2.7660    -0.5180     0.8210 hc         1 XIA       0.048200
     34 H14         -2.8200     1.1160    -1.1430 hc         1 XIA       0.054200
     35 H15         -3.3420    -0.1980    -2.1710 hc         1 XIA       0.054200
     36 H16         -5.5040    -0.2750    -1.2380 ha         1 XIA       0.157000
     37 H17         -4.6620     3.2600     0.7720 hc         1 XIA       0.035200
     38 H18         -4.5750     2.0730     2.0810 hc         1 XIA       0.035200
     39 H19         -3.3390     2.0910     0.8280 hc         1 XIA       0.035200
     40 H20         -7.3550     0.6970    -0.0790 hc         1 XIA       0.035200
     41 H21         -6.9420     1.1800     1.5710 hc         1 XIA       0.035200
     42 H22         -7.1050     2.4060     0.3010 hc         1 XIA       0.035200
@<TRIPOS>BOND
     1     1     2 1   
     2     2     3 1   
     3     2     4 1   
     4     4     5 ar  
     5     4    15 ar  
     6     5     6 ar  
     7     5    22 1   
     8     6     7 1   
     9     6    13 ar  
    10     7     8 1   
    11     7    23 1   
    12     7    24 1   
    13     8     9 1   
    14     8    10 1   
    15     8    25 1   
    16     9    26 1   
    17    10    11 1   
    18    10    12 1   
    19    10    16 1   
    20    11    27 1   
    21    11    28 1   
    22    11    29 1   
    23    12    13 1   
    24    13    14 ar  
    25    14    15 ar  
    26    14    30 1   
    27    15    31 1   
    28    16    17 1   
    29    16    32 1   
    30    16    33 1   
    31    17    18 1   
    32    17    34 1   
    33    17    35 1   
    34    18    19 2   
    35    18    36 1   
    36    19    20 1   
    37    19    21 1   
    38    20    37 1   
    39    20    38 1   
    40    20    39 1   
    41    21    40 1   
    42    21    41 1   
    43    21    42 1   
@<TRIPOS>SUBSTRUCTURE
     1 XIA         1 TEMP              0 ****  ****    0 ROOT
