@<TRIPOS>MOLECULE
XIF
   19    19     1     0     0
SMALL
No Charge or Current Charge


@<TRIPOS>ATOM
      1 N1           1.9440    -0.6120    -0.2780 n7         1 XIF      -0.860400
      2 C2           0.7720    -1.4240     0.1470 c6         1 XIF       0.117800
      3 C3          -0.5870    -0.7670    -0.2540 c6         1 XIF       0.173300
      4 O3          -1.6880    -1.5550     0.2470 oh         1 XIF      -0.644000
      5 C4          -0.6430     0.7030     0.2850 c6         1 XIF       0.176300
      6 O4          -1.8230     1.3900    -0.1720 oh         1 XIF      -0.642000
      7 C5           0.6130     1.4930    -0.1630 c6         1 XIF      -0.118400
      8 C6           1.9100     0.7660     0.2610 c6         1 XIF       0.161800
      9 HN1          2.8070    -1.0730     0.0430 hn         1 XIF       0.416000
     10 H21          0.8430    -2.4230    -0.3080 h1         1 XIF       0.036200
     11 H22          0.8030    -1.5550     1.2390 h1         1 XIF       0.036200
     12 H3          -0.6290    -0.7250    -1.3530 h1         1 XIF       0.056700
     13 HO3         -1.7100    -2.3800    -0.2860 ho         1 XIF       0.440000
     14 H4          -0.6450     0.6610     1.3840 h1         1 XIF       0.036700
     15 HO4         -1.8710     2.2320     0.3300 ho         1 XIF       0.439000
     16 H51          0.6070     1.6220    -1.2540 hc         1 XIF       0.054700
     17 H52          0.6010     2.5010     0.2740 hc         1 XIF       0.054700
     18 H61          1.9730     0.7340     1.3590 h1         1 XIF       0.032700
     19 H62          2.7830     1.3260    -0.1070 h1         1 XIF       0.032700
@<TRIPOS>BOND
     1     1     2 1   
     2     1     8 1   
     3     1     9 1   
     4     2     3 1   
     5     2    10 1   
     6     2    11 1   
     7     3     4 1   
     8     3     5 1   
     9     3    12 1   
    10     4    13 1   
    11     5     6 1   
    12     5     7 1   
    13     5    14 1   
    14     6    15 1   
    15     7     8 1   
    16     7    16 1   
    17     7    17 1   
    18     8    18 1   
    19     8    19 1   
@<TRIPOS>SUBSTRUCTURE
     1 XIF         1 TEMP              0 ****  ****    0 ROOT
