@<TRIPOS>MOLECULE
XIF
   19    19     1     0     0
SMALL
bcc


@<TRIPOS>ATOM
      1 N1           1.8810    -0.5880    -0.3220 n7         1 XIF      -0.805200
      2 C2           0.7640    -1.3770     0.1590 c6         1 XIF       0.117800
      3 C3          -0.5560    -0.7310    -0.2620 c6         1 XIF       0.150100
      4 O3          -1.6600    -1.4630     0.2190 oh         1 XIF      -0.581800
      5 C4          -0.6290     0.6780     0.3000 c6         1 XIF       0.153100
      6 O4          -1.8200     1.2810    -0.1540 oh         1 XIF      -0.579800
      7 C5           0.6100     1.4650    -0.1170 c6         1 XIF      -0.118400
      8 C6           1.8860     0.7360     0.2730 c6         1 XIF       0.161800
      9 HN1          2.7470    -1.0640    -0.1100 hn         1 XIF       0.360800
     10 H21          0.8290    -2.3810    -0.2690 h1         1 XIF       0.036200
     11 H22          0.7600    -1.4940     1.2560 h1         1 XIF       0.036200
     12 H3          -0.5690    -0.6660    -1.3610 h1         1 XIF       0.056700
     13 HO3         -1.6390    -2.3360    -0.1860 ho         1 XIF       0.401000
     14 H4          -0.6320     0.5970     1.4000 h1         1 XIF       0.036700
     15 HO4         -1.8210     2.1960     0.1420 ho         1 XIF       0.400000
     16 H51          0.5940     1.6140    -1.2010 hc         1 XIF       0.054700
     17 H52          0.5920     2.4540     0.3490 hc         1 XIF       0.054700
     18 H61          1.9680     0.7060     1.3720 h1         1 XIF       0.032700
     19 H62          2.7550     1.2870    -0.0930 h1         1 XIF       0.032700
@<TRIPOS>BOND
     1     1     2 1   
     2     1     8 1   
     3     1     9 1   
     4     2     3 1   
     5     2    10 1   
     6     2    11 1   
     7     3     4 1   
     8     3     5 1   
     9     3    12 1   
    10     4    13 1   
    11     5     6 1   
    12     5     7 1   
    13     5    14 1   
    14     6    15 1   
    15     7     8 1   
    16     7    16 1   
    17     7    17 1   
    18     8    18 1   
    19     8    19 1   
@<TRIPOS>SUBSTRUCTURE
     1 XIF         1 TEMP              0 ****  ****    0 ROOT
