@<TRIPOS>MOLECULE
XIG
   69    73     1     0     0
SMALL
No Charge or Current Charge


@<TRIPOS>ATOM
      1 C1          45.7170    60.4970    32.3580 c3         1 XIG       0.153900
      2 O2          45.2600    59.4030    31.5430 os         1 XIG      -0.366100
      3 C3          43.9440    59.2800    31.1460 ca         1 XIG       0.101100
      4 C4          43.5970    58.1780    30.3520 ca         1 XIG      -0.170500
      5 C5          42.2720    58.0000    29.9180 ca         1 XIG      -0.076000
      6 C6          41.2570    58.9250    30.2690 cp         1 XIG      -0.018000
      7 C7          41.6240    60.0340    31.0720 ca         1 XIG      -0.076000
      8 C8          42.9500    60.2140    31.5080 ca         1 XIG      -0.170500
      9 C9          39.8440    58.7380    29.8060 cp         1 XIG      -0.085000
     10 C10         39.2800    57.4440    29.6740 ca         1 XIG      -0.100500
     11 C11         37.9550    57.2680    29.2400 ca         1 XIG      -0.103000
     12 C12         37.1530    58.3810    28.9260 ca         1 XIG      -0.035300
     13 C13         35.7170    58.1770    28.4460 c3         1 XIG       0.140300
     14 N14         34.7150    59.0700    29.0880 n          1 XIG      -0.414800
     15 C15         33.7690    59.8130    28.1940 c6         1 XIG       0.168000
     16 C16         34.3720    61.1390    27.6440 c6         1 XIG      -0.091400
     17 C17         35.1800    60.9460    26.3440 c6         1 XIG      -0.076400
     18 C18         34.2930    60.3420    25.2390 c6         1 XIG      -0.024100
     19 C19         33.4580    59.1450    25.7060 ca         1 XIG      -0.081300
     20 C20         32.9200    58.2800    24.7350 ca         1 XIG      -0.148000
     21 C21         32.1360    57.1800    25.1130 ca         1 XIG      -0.139000
     22 C22         31.8800    56.9380    26.4700 ca         1 XIG      -0.130000
     23 C23         32.4070    57.7970    27.4480 ca         1 XIG      -0.068000
     24 C24         33.1970    58.9070    27.0810 ca         1 XIG      -0.075300
     25 C25         34.4170    58.8560    30.4600 c          1 XIG       0.665700
     26 O26         34.9220    57.9280    31.0840 o          1 XIG      -0.635100
     27 C27         33.5620    59.8790    31.1820 ca         1 XIG      -0.177600
     28 C28         33.9070    61.2460    31.1260 ca         1 XIG      -0.130000
     29 C29         33.1570    62.2270    31.8080 ca         1 XIG      -0.102600
     30 C30         33.5420    63.6860    31.6790 c          1 XIG       0.732600
     31 O31         34.6960    64.0060    31.9310 o          1 XIG      -0.756000
     32 O32         32.7180    64.4640    31.2170 o          1 XIG      -0.756000
     33 C33         32.0470    61.8280    32.5920 ca         1 XIG      -0.093600
     34 C34         31.7090    60.4610    32.6630 ca         1 XIG      -0.093000
     35 C35         32.4510    59.4800    31.9710 ca         1 XIG      -0.144600
     36 C36         32.0180    58.0320    32.0700 c          1 XIG       0.716600
     37 O37         31.8300    57.5590    33.1820 o          1 XIG      -0.765500
     38 O38         31.7630    57.4340    31.0360 o          1 XIG      -0.765500
     39 C39         31.2360    62.8330    33.3820 c          1 XIG       0.731600
     40 O40         30.0190    62.8250    33.2500 o          1 XIG      -0.753000
     41 O41         31.8130    63.5200    34.2140 o          1 XIG      -0.753000
     42 C42         37.6990    59.6720    29.0500 ca         1 XIG      -0.103000
     43 C43         39.0230    59.8480    29.4850 ca         1 XIG      -0.100500
     44 H11         37.5500    56.2620    29.1530 ha         1 XIG       0.128000
     45 H4          44.3590    57.4570    30.0670 ha         1 XIG       0.108500
     46 H5          42.0330    57.1440    29.2920 ha         1 XIG       0.123000
     47 H7          40.8710    60.7580    31.3730 ha         1 XIG       0.123000
     48 H8          43.1820    61.0770    32.1240 ha         1 XIG       0.108500
     49 H10         39.8700    56.5660    29.9230 ha         1 XIG       0.098500
     50 H1          45.5480    61.4570    31.8530 h1         1 XIG       0.033367
     51 H1A         46.7920    60.4020    32.5550 h1         1 XIG       0.033367
     52 H1B         45.1940    60.5100    33.3230 h1         1 XIG       0.033367
     53 H15         32.8970    60.1110    28.7950 h1         1 XIG       0.130700
     54 H20         33.1090    58.4620    23.6790 ha         1 XIG       0.077000
     55 H21         31.7260    56.5160    24.3550 ha         1 XIG       0.077000
     56 H22         31.2730    56.0850    26.7660 ha         1 XIG       0.104000
     57 H23         32.2040    57.5970    28.4980 ha         1 XIG       0.207000
     58 H28         34.7850    61.5530    30.5670 ha         1 XIG       0.073000
     59 H13         35.7020    58.3100    27.3580 h1         1 XIG       0.053700
     60 H13A        35.4170    57.1370    28.6300 h1         1 XIG       0.053700
     61 H34         30.8570    60.1560    33.2670 ha         1 XIG       0.120000
     62 H42         37.0990    60.5450    28.8080 ha         1 XIG       0.128000
     63 H43         39.4200    60.8570    29.5580 ha         1 XIG       0.098500
     64 H16         33.5500    61.8390    27.4420 hc         1 XIG       0.070200
     65 H16A        34.9990    61.6280    28.3970 hc         1 XIG       0.070200
     66 H17         35.5790    61.9130    26.0070 hc         1 XIG       0.031700
     67 H17A        36.0510    60.3050    26.5220 hc         1 XIG       0.031700
     68 H18         34.9250    60.0510    24.3880 hc         1 XIG       0.025700
     69 H18A        33.6120    61.1170    24.8600 hc         1 XIG       0.025700
@<TRIPOS>BOND
     1     1     2 1   
     2     1    50 1   
     3     1    51 1   
     4     1    52 1   
     5     2     3 1   
     6     3     4 ar  
     7     3     8 ar  
     8     4     5 ar  
     9     4    45 1   
    10     5     6 ar  
    11     5    46 1   
    12     6     7 ar  
    13     6     9 1   
    14     7     8 ar  
    15     7    47 1   
    16     8    48 1   
    17     9    10 ar  
    18     9    43 ar  
    19    10    11 ar  
    20    10    49 1   
    21    11    12 ar  
    22    11    44 1   
    23    12    13 1   
    24    12    42 ar  
    25    13    14 1   
    26    13    59 1   
    27    13    60 1   
    28    14    15 1   
    29    14    25 1   
    30    15    16 1   
    31    15    24 1   
    32    15    53 1   
    33    16    17 1   
    34    16    64 1   
    35    16    65 1   
    36    17    18 1   
    37    17    66 1   
    38    17    67 1   
    39    18    19 1   
    40    18    68 1   
    41    18    69 1   
    42    19    20 ar  
    43    19    24 ar  
    44    20    21 ar  
    45    20    54 1   
    46    21    22 ar  
    47    21    55 1   
    48    22    23 ar  
    49    22    56 1   
    50    23    24 ar  
    51    23    57 1   
    52    25    26 2   
    53    25    27 1   
    54    27    28 ar  
    55    27    35 ar  
    56    28    29 ar  
    57    28    58 1   
    58    29    30 1   
    59    29    33 ar  
    60    30    31 1   
    61    30    32 1   
    62    33    34 ar  
    63    33    39 1   
    64    34    35 ar  
    65    34    61 1   
    66    35    36 1   
    67    36    37 1   
    68    36    38 1   
    69    39    40 1   
    70    39    41 1   
    71    42    43 ar  
    72    42    62 1   
    73    43    63 1   
@<TRIPOS>SUBSTRUCTURE
     1 XIG         1 TEMP              0 ****  ****    0 ROOT
