@<TRIPOS>MOLECULE
XIG
   69    73     1     0     0
SMALL
abcg2


@<TRIPOS>ATOM
      1 C1          45.6330    60.5730    31.8940 c3         1 XIG       0.153900
      2 O2          45.2210    59.6500    30.8860 os         1 XIG      -0.366100
      3 C3          43.8870    59.4860    30.6710 ca         1 XIG       0.101100
      4 C4          43.5310    58.5830    29.6650 ca         1 XIG      -0.170500
      5 C5          42.1980    58.3470    29.3800 ca         1 XIG      -0.076000
      6 C6          41.1720    58.9990    30.0810 cp         1 XIG      -0.018000
      7 C7          41.5500    59.8990    31.0790 ca         1 XIG      -0.076000
      8 C8          42.8860    60.1480    31.3800 ca         1 XIG      -0.170500
      9 C9          39.7480    58.7390    29.7780 cp         1 XIG      -0.085000
     10 C10         39.3150    57.4720    29.3640 ca         1 XIG      -0.100500
     11 C11         37.9770    57.2270    29.0930 ca         1 XIG      -0.103000
     12 C12         37.0170    58.2310    29.2230 ca         1 XIG      -0.035300
     13 C13         35.5780    57.9150    28.8790 c3         1 XIG       0.140300
     14 N14         34.5920    58.8740    29.3600 n          1 XIG      -0.414800
     15 C15         33.8070    59.6860    28.3980 c6         1 XIG       0.168000
     16 C16         34.5300    60.9600    27.9440 c6         1 XIG      -0.091400
     17 C17         35.4900    60.7150    26.7860 c6         1 XIG      -0.076400
     18 C18         34.7120    60.2050    25.5780 c6         1 XIG      -0.024100
     19 C19         33.7820    59.0640    25.9190 ca         1 XIG      -0.081300
     20 C20         33.3310    58.2170    24.9000 ca         1 XIG      -0.148000
     21 C21         32.4690    57.1640    25.1630 ca         1 XIG      -0.139000
     22 C22         32.0360    56.9390    26.4690 ca         1 XIG      -0.130000
     23 C23         32.4750    57.7690    27.4890 ca         1 XIG      -0.068000
     24 C24         33.3470    58.8310    27.2280 ca         1 XIG      -0.075300
     25 C25         34.3140    58.8590    30.6880 c          1 XIG       0.665700
     26 O26         34.9000    58.0970    31.4630 o          1 XIG      -0.635100
     27 C27         33.3970    59.9200    31.2310 ca         1 XIG      -0.177600
     28 C28         33.9500    61.1870    31.4090 ca         1 XIG      -0.130000
     29 C29         33.2280    62.2400    31.9630 ca         1 XIG      -0.102600
     30 C30         33.8880    63.6080    32.0330 c          1 XIG       0.732600
     31 O31         34.9770    63.6820    32.6570 o          1 XIG      -0.756000
     32 O32         33.3120    64.5410    31.4190 o          1 XIG      -0.756000
     33 C33         31.9090    62.0090    32.3740 ca         1 XIG      -0.093600
     34 C34         31.3720    60.7330    32.2190 ca         1 XIG      -0.093000
     35 C35         32.0860    59.6750    31.6560 ca         1 XIG      -0.144600
     36 C36         31.4180    58.3160    31.4990 c          1 XIG       0.716600
     37 O37         30.3760    58.1030    32.1700 o          1 XIG      -0.765500
     38 O38         31.9540    57.5090    30.6960 o          1 XIG      -0.765500
     39 C39         31.0590    63.0840    33.0320 c          1 XIG       0.731600
     40 O40         29.9250    63.2950    32.5310 o          1 XIG      -0.753000
     41 O41         31.5430    63.6480    34.0460 o          1 XIG      -0.753000
     42 C42         37.4420    59.4910    29.6330 ca         1 XIG      -0.103000
     43 C43         38.7820    59.7410    29.9040 ca         1 XIG      -0.100500
     44 H11         37.6690    56.2320    28.7880 ha         1 XIG       0.128000
     45 H4          44.3130    58.0800    29.1100 ha         1 XIG       0.108500
     46 H5          41.9480    57.6570    28.5840 ha         1 XIG       0.123000
     47 H7          40.7890    60.4090    31.6570 ha         1 XIG       0.123000
     48 H8          43.1280    60.8460    32.1670 ha         1 XIG       0.108500
     49 H10         40.0280    56.6630    29.2760 ha         1 XIG       0.098500
     50 H1          45.2830    61.5840    31.6670 h1         1 XIG       0.033367
     51 H1A         46.7190    60.5530    31.8900 h1         1 XIG       0.033367
     52 H1B         45.2630    60.2720    32.8770 h1         1 XIG       0.033367
     53 H15         32.9190    59.9890    28.9470 h1         1 XIG       0.130700
     54 H20         33.6760    58.3910    23.8860 ha         1 XIG       0.077000
     55 H21         32.1390    56.5200    24.3570 ha         1 XIG       0.077000
     56 H22         31.3610    56.1200    26.6870 ha         1 XIG       0.104000
     57 H23         32.1580    57.6010    28.5120 ha         1 XIG       0.207000
     58 H28         34.9730    61.3640    31.1010 ha         1 XIG       0.073000
     59 H13         35.4750    57.8540    27.7970 h1         1 XIG       0.053700
     60 H13A        35.3360    56.9250    29.2710 h1         1 XIG       0.053700
     61 H34         30.3580    60.5430    32.5410 ha         1 XIG       0.120000
     62 H42         36.7240    60.2900    29.7440 ha         1 XIG       0.128000
     63 H43         39.0780    60.7380    30.2050 ha         1 XIG       0.098500
     64 H16         33.7670    61.6760    27.6210 hc         1 XIG       0.070200
     65 H16A        35.0370    61.4080    28.7960 hc         1 XIG       0.070200
     66 H17         36.0150    61.6370    26.5300 hc         1 XIG       0.031700
     67 H17A        36.2550    59.9890    27.0720 hc         1 XIG       0.031700
     68 H18         35.3890    59.8930    24.7800 hc         1 XIG       0.025700
     69 H18A        34.1150    61.0290    25.1680 hc         1 XIG       0.025700
@<TRIPOS>BOND
     1     1     2 1   
     2     1    50 1   
     3     1    51 1   
     4     1    52 1   
     5     2     3 1   
     6     3     4 ar  
     7     3     8 ar  
     8     4     5 ar  
     9     4    45 1   
    10     5     6 ar  
    11     5    46 1   
    12     6     7 ar  
    13     6     9 1   
    14     7     8 ar  
    15     7    47 1   
    16     8    48 1   
    17     9    10 ar  
    18     9    43 ar  
    19    10    11 ar  
    20    10    49 1   
    21    11    12 ar  
    22    11    44 1   
    23    12    13 1   
    24    12    42 ar  
    25    13    14 1   
    26    13    59 1   
    27    13    60 1   
    28    14    15 1   
    29    14    25 1   
    30    15    16 1   
    31    15    24 1   
    32    15    53 1   
    33    16    17 1   
    34    16    64 1   
    35    16    65 1   
    36    17    18 1   
    37    17    66 1   
    38    17    67 1   
    39    18    19 1   
    40    18    68 1   
    41    18    69 1   
    42    19    20 ar  
    43    19    24 ar  
    44    20    21 ar  
    45    20    54 1   
    46    21    22 ar  
    47    21    55 1   
    48    22    23 ar  
    49    22    56 1   
    50    23    24 ar  
    51    23    57 1   
    52    25    26 2   
    53    25    27 1   
    54    27    28 ar  
    55    27    35 ar  
    56    28    29 ar  
    57    28    58 1   
    58    29    30 1   
    59    29    33 ar  
    60    30    31 1   
    61    30    32 1   
    62    33    34 ar  
    63    33    39 1   
    64    34    35 ar  
    65    34    61 1   
    66    35    36 1   
    67    36    37 1   
    68    36    38 1   
    69    39    40 1   
    70    39    41 1   
    71    42    43 ar  
    72    42    62 1   
    73    43    63 1   
@<TRIPOS>SUBSTRUCTURE
     1 XIG         1 TEMP              0 ****  ****    0 ROOT
