@<TRIPOS>MOLECULE
XIH
   52    55     1     0     0
SMALL
bcc


@<TRIPOS>ATOM
      1 C5           1.0780     0.6310     0.3240 cc         1 XIH      -0.366200
      2 C6           0.7880     1.8340    -0.2520 cd         1 XIH       0.518200
      3 C8          -1.0630     1.0670     0.4090 cc         1 XIH       0.693400
      4 C10         -2.8380     0.7750     2.0370 c6         1 XIH       0.200800
      5 C13         -4.6780     0.9730    -0.2100 c6         1 XIH       0.146500
      6 C15         -3.3110     1.6500    -0.1890 c6         1 XIH       0.216800
      7 C20         -0.1710    -2.8090    -2.3460 ca         1 XIH      -0.111000
      8 C21          0.6430    -3.9140    -2.1280 ca         1 XIH      -0.122000
      9 C22          1.1330    -4.1630    -0.8600 ca         1 XIH      -0.095000
     10 C24          1.3340    -3.5940     1.4860 cg         1 XIH       0.237800
     11 C28          3.0670     2.2310    -0.7540 c          1 XIH       0.837500
     12 N            3.3330     1.0060    -0.1520 n          1 XIH      -0.508400
     13 C3           2.4010     0.1420     0.4410 c          1 XIH       0.774100
     14 O            2.7550    -0.8950     0.9760 o          1 XIH      -0.607500
     15 N7          -0.5240     2.1180    -0.1950 nd         1 XIH      -0.744000
     16 N9          -2.3940     0.8890     0.6450 nh         1 XIH      -0.772300
     17 C11         -4.1740     0.0570     2.0890 c6         1 XIH      -0.075400
     18 C12         -5.1950     0.7760     1.2150 c6         1 XIH      -0.113400
     19 N16         -0.1430     0.1290     0.7430 na         1 XIH      -0.158900
     20 C18         -0.0030    -2.1840    -0.0180 ca         1 XIH      -0.075300
     21 C19         -0.4900    -1.9580    -1.2990 ca         1 XIH      -0.116000
     22 C23          0.8120    -3.3000     0.1900 ca         1 XIH       0.020000
     23 N25          1.7490    -3.8710     2.5250 n1         1 XIH      -0.357800
     24 N26          1.7530     2.6350    -0.7840 n          1 XIH      -0.428300
     25 C27          1.3690     3.9080    -1.3750 c3         1 XIH       0.102300
     26 O29          3.9540     2.9160    -1.2290 o          1 XIH      -0.635500
     27 H101        -2.0900     0.2450     2.6260 h1         1 XIH       0.046200
     28 H102        -2.9360     1.7770     2.4760 h1         1 XIH       0.046200
     29 H13         -4.5430    -0.0120    -0.6700 h1         1 XIH       0.069700
     30 H151        -3.4170     2.6820     0.1770 h1         1 XIH       0.060700
     31 H152        -2.9170     1.7020    -1.2030 h1         1 XIH       0.060700
     32 H171         0.1220    -1.4890     2.0300 h1         1 XIH       0.082700
     33 H172        -1.4600    -1.3620     1.2900 h1         1 XIH       0.082700
     34 H20         -0.5630    -2.6110    -3.3350 ha         1 XIH       0.138000
     35 H21          0.8930    -4.5790    -2.9430 ha         1 XIH       0.139000
     36 H22          1.7670    -5.0190    -0.6750 ha         1 XIH       0.146000
     37 H1           5.3530     1.2790    -0.5970 h1         1 XIH       0.057700
     38 H2           5.0480     0.4730     0.9440 h1         1 XIH       0.057700
     39 H3           4.8290    -0.4070    -0.5760 h1         1 XIH       0.057700
     40 H111        -4.0430    -0.9740     1.7480 hc         1 XIH       0.052700
     41 H112        -4.5170     0.0130     3.1240 hc         1 XIH       0.052700
     42 H121        -6.1390     0.2250     1.1930 hc         1 XIH       0.042700
     43 H122        -5.4120     1.7600     1.6470 hc         1 XIH       0.042700
     44 H141        -6.4360     1.2470    -1.1830 hn         1 XIH       0.340300
     45 H142        -5.8010     2.6140    -0.6120 hn         1 XIH       0.340300
     46 H19         -1.1370    -1.1090    -1.4860 ha         1 XIH       0.143000
     47 H271         2.2480     4.4000    -1.7710 h1         1 XIH       0.058367
     48 H272         0.6570     3.7460    -2.1810 h1         1 XIH       0.058367
     49 H273         0.9120     4.5480    -0.6220 h1         1 XIH       0.058367
     50 C17         -0.3930    -1.2510     1.1010 c3         1 XIH       0.095600
     51 C            4.7210     0.5610    -0.0910 c3         1 XIH       0.084300
     52 N14         -5.5610     1.7430    -1.0720 n8         1 XIH      -0.876800
@<TRIPOS>BOND
     1     1     2 2   
     2     1    13 1   
     3     1    19 1   
     4     2    15 1   
     5     2    24 1   
     6     3    15 2   
     7     3    16 1   
     8     3    19 1   
     9     4    16 1   
    10     4    17 1   
    11     4    27 1   
    12     4    28 1   
    13     5     6 1   
    14     5    18 1   
    15     5    29 1   
    16     5    52 1   
    17     6    16 1   
    18     6    30 1   
    19     6    31 1   
    20     7     8 ar  
    21     7    21 ar  
    22     7    34 1   
    23     8     9 ar  
    24     8    35 1   
    25     9    22 ar  
    26     9    36 1   
    27    10    22 1   
    28    10    23 3   
    29    11    12 1   
    30    11    24 1   
    31    11    26 2   
    32    12    13 1   
    33    12    51 1   
    34    13    14 2   
    35    17    18 1   
    36    17    40 1   
    37    17    41 1   
    38    18    42 1   
    39    18    43 1   
    40    19    50 1   
    41    20    21 ar  
    42    20    22 ar  
    43    20    50 1   
    44    21    46 1   
    45    24    25 1   
    46    25    47 1   
    47    25    48 1   
    48    25    49 1   
    49    32    50 1   
    50    33    50 1   
    51    37    51 1   
    52    38    51 1   
    53    39    51 1   
    54    44    52 1   
    55    45    52 1   
@<TRIPOS>SUBSTRUCTURE
     1 XIH         1 TEMP              0 ****  ****    0 ROOT
