@<TRIPOS>MOLECULE
XIH
   52    55     1     0     0
SMALL
No Charge or Current Charge


@<TRIPOS>ATOM
      1 C5           1.2220     0.7680     0.3350 cc         1 XIH      -0.351600
      2 C6           0.9110     1.9960    -0.1520 cd         1 XIH       0.452900
      3 C8          -0.9600     1.1340     0.4250 cc         1 XIH       0.693400
      4 C10         -2.8450     0.8490     2.0000 c6         1 XIH       0.200800
      5 C13         -4.6100     0.7760    -0.3820 c6         1 XIH       0.146500
      6 C15         -3.2770     1.5970    -0.3250 c6         1 XIH       0.216800
      7 C20         -0.6640    -2.9100    -2.2500 ca         1 XIH      -0.093000
      8 C21          0.0370    -4.1120    -2.0830 ca         1 XIH      -0.104000
      9 C22          0.6670    -4.3900    -0.8600 ca         1 XIH      -0.077000
     10 C24          1.2580    -3.8140     1.4420 cg         1 XIH       0.327000
     11 C28          3.2260     2.4670    -0.5960 c          1 XIH       0.628000
     12 N            3.5460     1.1860    -0.1150 n          1 XIH      -0.374400
     13 C3           2.5990     0.2810     0.3780 c          1 XIH       0.631600
     14 O            2.8970    -0.8210     0.8150 o          1 XIH      -0.532000
     15 N7          -0.4430     2.2190    -0.1040 nd         1 XIH      -0.744000
     16 N9          -2.3060     0.9780     0.6230 nh         1 XIH      -0.772300
     17 C11         -4.1340    -0.0080     1.9950 c6         1 XIH      -0.075400
     18 C12         -5.2000     0.5890     1.0390 c6         1 XIH      -0.113400
     19 N16          0.0150     0.1920     0.6950 na         1 XIH      -0.137500
     20 C18         -0.0910    -2.2400     0.0370 ca         1 XIH      -0.075300
     21 C19         -0.7310    -1.9840    -1.1980 ca         1 XIH      -0.098000
     22 C23          0.6070    -3.4670     0.2040 ca         1 XIH       0.020000
     23 N25          1.7750    -4.1040     2.4490 n1         1 XIH      -0.447000
     24 N26          1.8770     2.8510    -0.6190 n          1 XIH      -0.361300
     25 C27          1.5280     4.1970    -1.1370 c3         1 XIH       0.102300
     26 O29          4.0990     3.2320    -0.9840 o          1 XIH      -0.560000
     27 H101        -2.1060     0.3960     2.6760 h1         1 XIH       0.046200
     28 H102        -3.0760     1.8460     2.4040 h1         1 XIH       0.046200
     29 H13         -4.3710    -0.2170    -0.7940 h1         1 XIH       0.069700
     30 H151        -3.4940     2.6300    -0.0160 h1         1 XIH       0.060700
     31 H152        -2.8490     1.6430    -1.3370 h1         1 XIH       0.060700
     32 H171         0.5390    -1.3850     1.9530 h1         1 XIH       0.082700
     33 H172        -1.1840    -1.2830     1.6140 h1         1 XIH       0.082700
     34 H20         -1.1600    -2.6970    -3.1950 ha         1 XIH       0.120000
     35 H21          0.0890    -4.8310    -2.8980 ha         1 XIH       0.121000
     36 H22          1.2030    -5.3300    -0.7390 ha         1 XIH       0.128000
     37 H1           5.4980     1.1770    -0.9880 h1         1 XIH       0.057700
     38 H2           5.4640     1.1660     0.7980 h1         1 XIH       0.057700
     39 H3           5.0840    -0.3120    -0.1290 h1         1 XIH       0.057700
     40 H111        -3.8900    -1.0340     1.6870 hc         1 XIH       0.052700
     41 H112        -4.5390    -0.0740     3.0130 hc         1 XIH       0.052700
     42 H121        -6.0770    -0.0720     1.0050 hc         1 XIH       0.042700
     43 H122        -5.5440     1.5540     1.4360 hc         1 XIH       0.042700
     44 H141        -6.4660     0.8000    -1.2720 hn         1 XIH       0.395500
     45 H142        -5.9590     2.2650    -0.8390 hn         1 XIH       0.395500
     46 H19         -1.2890    -1.0630    -1.3480 ha         1 XIH       0.125000
     47 H271         1.9940     4.3500    -2.1190 h1         1 XIH       0.058367
     48 H272         0.4440     4.3140    -1.2510 h1         1 XIH       0.058367
     49 H273         1.8950     4.9640    -0.4440 h1         1 XIH       0.058367
     50 C17         -0.1910    -1.1940     1.1590 c3         1 XIH       0.124900
     51 C            4.9790     0.7800    -0.1070 c3         1 XIH       0.084300
     52 N14         -5.6290     1.3940    -1.2700 n8         1 XIH      -0.987200
@<TRIPOS>BOND
     1     1     2 2   
     2     1    13 1   
     3     1    19 1   
     4     2    15 1   
     5     2    24 1   
     6     3    15 2   
     7     3    16 1   
     8     3    19 1   
     9     4    16 1   
    10     4    17 1   
    11     4    27 1   
    12     4    28 1   
    13     5     6 1   
    14     5    18 1   
    15     5    29 1   
    16     5    52 1   
    17     6    16 1   
    18     6    30 1   
    19     6    31 1   
    20     7     8 ar  
    21     7    21 ar  
    22     7    34 1   
    23     8     9 ar  
    24     8    35 1   
    25     9    22 ar  
    26     9    36 1   
    27    10    22 1   
    28    10    23 3   
    29    11    12 1   
    30    11    24 1   
    31    11    26 2   
    32    12    13 1   
    33    12    51 1   
    34    13    14 2   
    35    17    18 1   
    36    17    40 1   
    37    17    41 1   
    38    18    42 1   
    39    18    43 1   
    40    19    50 1   
    41    20    21 ar  
    42    20    22 ar  
    43    20    50 1   
    44    21    46 1   
    45    24    25 1   
    46    25    47 1   
    47    25    48 1   
    48    25    49 1   
    49    32    50 1   
    50    33    50 1   
    51    37    51 1   
    52    38    51 1   
    53    39    51 1   
    54    44    52 1   
    55    45    52 1   
@<TRIPOS>SUBSTRUCTURE
     1 XIH         1 TEMP              0 ****  ****    0 ROOT
