@<TRIPOS>MOLECULE
XII
   22    21     1     0     0
SMALL
No Charge or Current Charge


@<TRIPOS>ATOM
      1 C02         96.9970   131.9050   132.1420 c3         1 XII       0.217000
      2 C03         97.3990   132.6460   133.4450 c3         1 XII      -0.112100
      3 C04         98.0630   132.0640   131.0160 c3         1 XII      -0.197400
      4 C05         99.4730   131.6120   131.4410 c          1 XII       0.733000
      5 C08         95.6160   132.4000   131.6140 c3         1 XII      -0.113400
      6 C09         94.4150   132.2670   132.5810 c3         1 XII       0.381300
      7 O01         96.8610   130.5210   132.4480 oh         1 XII      -0.632000
      8 O02         93.2440   132.7200   131.9390 oh         1 XII      -0.675500
      9 O06        100.2260   132.4460   131.9240 o          1 XII      -0.738500
     10 O07         99.8110   130.4580   131.2180 o          1 XII      -0.738500
     11 O10         94.1840   130.9100   132.9040 oh         1 XII      -0.675500
     12 H1          96.6420   132.5240   134.2280 hc         1 XII       0.032700
     13 H2          98.3400   132.2580   133.8510 hc         1 XII       0.032700
     14 H3          97.5240   133.7190   133.2580 hc         1 XII       0.032700
     15 H4          98.0830   133.1360   130.7820 hc         1 XII       0.022200
     16 H5          97.7160   131.4450   130.1790 hc         1 XII       0.022200
     17 H6          95.7090   133.4570   131.3380 hc         1 XII       0.060700
     18 H7          95.3750   131.8650   130.6870 hc         1 XII       0.060700
     19 H8          95.8960   130.4040   132.6320 ho         1 XII       0.426000
     20 H9          92.6520   133.0490   132.6470 ho         1 XII       0.426500
     21 H11         93.6220   130.9130   133.7080 ho         1 XII       0.426500
     22 H12         94.5790   132.8480   133.4970 h2         1 XII       0.008700
@<TRIPOS>BOND
     1     1     2 1   
     2     1     3 1   
     3     1     5 1   
     4     1     7 1   
     5     2    12 1   
     6     2    13 1   
     7     2    14 1   
     8     3     4 1   
     9     3    15 1   
    10     3    16 1   
    11     4     9 1   
    12     4    10 1   
    13     5     6 1   
    14     5    17 1   
    15     5    18 1   
    16     6     8 1   
    17     6    11 1   
    18     6    22 1   
    19     7    19 1   
    20     8    20 1   
    21    11    21 1   
@<TRIPOS>SUBSTRUCTURE
     1 XII         1 TEMP              0 ****  ****    0 ROOT
