@<TRIPOS>MOLECULE
XII
   22    21     1     0     0
SMALL
abcg2


@<TRIPOS>ATOM
      1 C02         96.9780   131.8920   132.1990 c3         1 XII       0.217000
      2 C03         97.2870   132.7430   133.4350 c3         1 XII      -0.112100
      3 C04         98.0320   132.0730   131.1020 c3         1 XII      -0.197400
      4 C05         99.4280   131.4430   131.3200 c          1 XII       0.733000
      5 C08         95.6180   132.3040   131.5970 c3         1 XII      -0.113400
      6 C09         94.4380   132.3260   132.5550 c3         1 XII       0.381300
      7 O01         96.9710   130.5110   132.5290 oh         1 XII      -0.632000
      8 O02         93.2990   132.6510   131.8140 oh         1 XII      -0.675500
      9 O06         99.9430   131.5110   132.4540 o          1 XII      -0.738500
     10 O07         99.9570   130.9470   130.3040 o          1 XII      -0.738500
     11 O10         94.3270   131.0530   133.1520 oh         1 XII      -0.675500
     12 H1          96.5800   132.5490   134.2440 hc         1 XII       0.032700
     13 H2          98.2870   132.5270   133.8010 hc         1 XII       0.032700
     14 H3          97.2330   133.8080   133.1990 hc         1 XII       0.032700
     15 H4          98.1700   133.1480   130.9350 hc         1 XII       0.022200
     16 H5          97.6240   131.6800   130.1660 hc         1 XII       0.022200
     17 H6          95.7110   133.3070   131.1720 hc         1 XII       0.060700
     18 H7          95.3810   131.6320   130.7640 hc         1 XII       0.060700
     19 H8          96.1500   130.3490   133.0130 ho         1 XII       0.426000
     20 H9          92.5950   132.9170   132.4150 ho         1 XII       0.426500
     21 H11         93.8200   131.1170   133.9690 ho         1 XII       0.426500
     22 H12         94.6000   133.0790   133.3380 h2         1 XII       0.008700
@<TRIPOS>BOND
     1     1     2 1   
     2     1     3 1   
     3     1     5 1   
     4     1     7 1   
     5     2    12 1   
     6     2    13 1   
     7     2    14 1   
     8     3     4 1   
     9     3    15 1   
    10     3    16 1   
    11     4     9 1   
    12     4    10 1   
    13     5     6 1   
    14     5    17 1   
    15     5    18 1   
    16     6     8 1   
    17     6    11 1   
    18     6    22 1   
    19     7    19 1   
    20     8    20 1   
    21    11    21 1   
@<TRIPOS>SUBSTRUCTURE
     1 XII         1 TEMP              0 ****  ****    0 ROOT
