@<TRIPOS>MOLECULE
XIJ
   32    33     1     0     0
SMALL
abcg2


@<TRIPOS>ATOM
      1 O1         113.1550   202.7620    -2.8030 o          1 XIJ      -0.721500
      2 C2         119.7260   206.7910     2.7580 ca         1 XIJ      -0.072500
      3 C6         117.2540   204.5080    -0.4580 ca         1 XIJ      -0.123300
      4 C7         116.5420   204.9130    -1.5860 ca         1 XIJ      -0.138000
      5 C8         115.4240   204.2120    -2.0150 ca         1 XIJ      -0.089500
      6 C9         114.9790   203.0800    -1.3360 ca         1 XIJ      -0.130600
      7 C10        113.7520   202.3050    -1.8090 c          1 XIJ       0.713600
      8 C13        119.7700   208.2580     0.8870 ca         1 XIJ      -0.072500
      9 C14        120.8750   208.9100     1.4140 ca         1 XIJ      -0.176500
     10 C          121.4290   208.5070     2.6340 ca         1 XIJ       0.268000
     11 O          113.4570   201.2840    -1.1590 o          1 XIJ      -0.721500
     12 C1         120.8290   207.4310     3.2990 ca         1 XIJ      -0.176500
     13 C11        115.6920   202.6740    -0.2100 ca         1 XIJ      -0.089500
     14 C12        116.8080   203.3770     0.2230 ca         1 XIJ      -0.138000
     15 C3         119.1700   207.1870     1.5440 ca         1 XIJ      -0.102300
     16 C4         117.9990   206.4550     0.9530 c3         1 XIJ      -0.030100
     17 H3         119.2840   205.9630     3.3020 ha         1 XIJ       0.111500
     18 H6         119.0060   205.6940    -0.7950 hc         1 XIJ       0.034700
     19 H7         119.1040   204.6380     0.6020 hc         1 XIJ       0.034700
     20 H8         116.8700   205.7890    -2.1350 ha         1 XIJ       0.082000
     21 H9         114.8890   204.5480    -2.8930 ha         1 XIJ       0.125000
     22 H13        119.3610   208.6000    -0.0570 ha         1 XIJ       0.111500
     23 H14        121.3120   209.7440     0.8770 ha         1 XIJ       0.103500
     24 H          122.7210   210.0590     2.8230 hn         1 XIJ       0.437000
     25 H1         122.6860   209.0370     4.1360 hn         1 XIJ       0.437000
     26 H2         121.2320   207.0990     4.2500 ha         1 XIJ       0.103500
     27 H11        115.3690   201.7960     0.3330 ha         1 XIJ       0.125000
     28 H12        117.3450   203.0410     1.1030 ha         1 XIJ       0.082000
     29 H5         117.3680   206.0590     1.7540 hc         1 XIJ       0.050200
     30 H4         117.3740   207.1430     0.3770 hc         1 XIJ       0.050200
     31 C5         118.4310   205.2940     0.0440 c3         1 XIJ      -0.013100
     32 N          122.5620   209.1160     3.1390 nv         1 XIJ      -1.073000
@<TRIPOS>BOND
     1     1     7 1   
     2     2    12 ar  
     3     2    15 ar  
     4     2    17 1   
     5     3     4 ar  
     6     3    14 ar  
     7     3    31 1   
     8     4     5 ar  
     9     4    20 1   
    10     5     6 ar  
    11     5    21 1   
    12     6     7 1   
    13     6    13 ar  
    14     7    11 1   
    15     8     9 ar  
    16     8    15 ar  
    17     8    22 1   
    18     9    10 ar  
    19     9    23 1   
    20    10    12 ar  
    21    10    32 1   
    22    12    26 1   
    23    13    14 ar  
    24    13    27 1   
    25    14    28 1   
    26    15    16 1   
    27    16    29 1   
    28    16    30 1   
    29    16    31 1   
    30    18    31 1   
    31    19    31 1   
    32    24    32 1   
    33    25    32 1   
@<TRIPOS>SUBSTRUCTURE
     1 XIJ         1 TEMP              0 ****  ****    0 ROOT
