@<TRIPOS>MOLECULE
XIJ
   32    33     1     0     0
SMALL
No Charge or Current Charge


@<TRIPOS>ATOM
      1 O1         113.2350   202.6910    -2.9890 o          1 XIJ      -0.721500
      2 C2         119.8200   206.7560     2.8130 ca         1 XIJ      -0.072500
      3 C6         117.2070   204.4900    -0.4100 ca         1 XIJ      -0.123300
      4 C7         116.5840   204.8950    -1.6040 ca         1 XIJ      -0.138000
      5 C8         115.4710   204.1940    -2.1010 ca         1 XIJ      -0.089500
      6 C9         114.9560   203.0710    -1.4110 ca         1 XIJ      -0.130600
      7 C10        113.7510   202.3110    -1.9470 c          1 XIJ       0.713600
      8 C13        119.7030   208.2770     0.9190 ca         1 XIJ      -0.072500
      9 C14        120.8160   208.9790     1.4170 ca         1 XIJ      -0.176500
     10 C          121.4300   208.5720     2.6100 ca         1 XIJ       0.268000
     11 O          113.3390   201.3460    -1.3180 o          1 XIJ      -0.721500
     12 C1         120.9320   207.4610     3.3070 ca         1 XIJ      -0.176500
     13 C11        115.5890   202.6730    -0.2100 ca         1 XIJ      -0.089500
     14 C12        116.7020   203.3770     0.2840 ca         1 XIJ      -0.138000
     15 C3         119.1990   207.1630     1.6160 ca         1 XIJ      -0.102300
     16 C4         117.9970   206.3980     1.0760 c3         1 XIJ      -0.030100
     17 H3         119.4420   205.8940     3.3590 ha         1 XIJ       0.111500
     18 H6         118.9960   205.6700    -0.7000 hc         1 XIJ       0.034700
     19 H7         119.0810   204.5710     0.6650 hc         1 XIJ       0.034700
     20 H8         116.9610   205.7570    -2.1500 ha         1 XIJ       0.082000
     21 H9         115.0090   204.5300    -3.0270 ha         1 XIJ       0.125000
     22 H13        119.2350   208.5990    -0.0090 ha         1 XIJ       0.111500
     23 H14        121.1970   209.8370     0.8710 ha         1 XIJ       0.103500
     24 H          122.7920   210.1340     2.6610 hn         1 XIJ       0.437000
     25 H1         122.8760   209.0440     4.0200 hn         1 XIJ       0.437000
     26 H2         121.4040   207.1390     4.2310 ha         1 XIJ       0.103500
     27 H11        115.2200   201.8150     0.3480 ha         1 XIJ       0.125000
     28 H12        117.1710   203.0540     1.2100 ha         1 XIJ       0.082000
     29 H5         117.4100   205.9820     1.9050 hc         1 XIJ       0.050200
     30 H4         117.3250   207.0810     0.5400 hc         1 XIJ       0.050200
     31 C5         118.4100   205.2540     0.1290 c3         1 XIJ      -0.013100
     32 N          122.5110   209.2560     3.0930 nv         1 XIJ      -1.073000
@<TRIPOS>BOND
     1     1     7 1   
     2     2    12 ar  
     3     2    15 ar  
     4     2    17 1   
     5     3     4 ar  
     6     3    14 ar  
     7     3    31 1   
     8     4     5 ar  
     9     4    20 1   
    10     5     6 ar  
    11     5    21 1   
    12     6     7 1   
    13     6    13 ar  
    14     7    11 1   
    15     8     9 ar  
    16     8    15 ar  
    17     8    22 1   
    18     9    10 ar  
    19     9    23 1   
    20    10    12 ar  
    21    10    32 1   
    22    12    26 1   
    23    13    14 ar  
    24    13    27 1   
    25    14    28 1   
    26    15    16 1   
    27    16    29 1   
    28    16    30 1   
    29    16    31 1   
    30    18    31 1   
    31    19    31 1   
    32    24    32 1   
    33    25    32 1   
@<TRIPOS>SUBSTRUCTURE
     1 XIJ         1 TEMP              0 ****  ****    0 ROOT
