@<TRIPOS>MOLECULE
XIL
   35    36     1     0     0
SMALL
No Charge or Current Charge


@<TRIPOS>ATOM
      1 C1          -0.1930     0.0270     0.8840 c6         1 XIL       0.350300
      2 C2          -0.8260    -0.7670     2.0750 c6         1 XIL       0.152300
      3 O2          -2.2540    -0.9500     1.8850 oh         1 XIL      -0.701000
      4 C3          -0.4970    -0.0140     3.4070 c6         1 XIL       0.182300
      5 O3          -0.9560    -0.7300     4.5690 oh         1 XIL      -0.639000
      6 C4           1.0410     0.2170     3.5370 c6         1 XIL       0.090300
      7 O4           1.3350     0.9780     4.7300 oh         1 XIL      -0.722000
      8 C5           1.5760     0.9250     2.2580 c6         1 XIL       0.133600
      9 O5           1.2280     0.1550     1.0870 os         1 XIL      -0.457000
     10 N1          -0.1270     1.1370    -4.2040 ns         1 XIL      -0.498900
     11 C7           0.0660    -0.2270    -4.1550 c          1 XIL       0.526000
     12 C8          -0.0140    -0.9500    -2.7700 c6         1 XIL       0.103300
     13 O1           0.3150    -0.8420    -5.1820 o          1 XIL      -0.572000
     14 O6           1.0570    -1.9250    -2.6150 oh         1 XIL      -0.691000
     15 C9          -0.0800     0.0400    -1.5680 c6         1 XIL       0.177300
     16 O7          -0.4370    -0.6690    -0.3550 os         1 XIL      -0.432000
     17 C10         -1.0760     1.1810    -1.8820 c6         1 XIL      -0.130400
     18 C6          -0.6010     1.9900    -3.1050 c6         1 XIL       0.114000
     19 H1          -0.6480     1.0270     0.8460 h2         1 XIL       0.027700
     20 H2          -0.3300    -1.7480     2.1130 h1         1 XIL       0.069700
     21 HO2         -2.3600    -1.3110     0.9730 ho         1 XIL       0.516000
     22 H3          -0.9840     0.9720     3.3670 h1         1 XIL       0.049700
     23 HO3         -0.4580    -0.3250     5.3150 ho         1 XIL       0.458000
     24 H4           1.5290    -0.7690     3.5960 h1         1 XIL       0.060700
     25 HO4          2.3160     0.9950     4.8390 ho         1 XIL       0.513000
     26 H51          1.1510     1.9360     2.1700 h1         1 XIL       0.056200
     27 H52          2.6700     1.0150     2.3070 h1         1 XIL       0.056200
     28 H7          -0.9820    -1.4710    -2.8000 h1         1 XIL       0.062700
     29 HO           1.1540    -2.3750    -3.4890 ho         1 XIL       0.531000
     30 H8           0.9220     0.4760    -1.4380 h1         1 XIL       0.067700
     31 H5'1        -2.0700     0.7580    -2.0820 hc         1 XIL       0.065700
     32 H5'2        -1.1900     1.8630    -1.0300 hc         1 XIL       0.065700
     33 H6'1        -1.4150     2.6310    -3.4710 h1         1 XIL       0.046700
     34 H6'2         0.2310     2.6450    -2.8070 h1         1 XIL       0.046700
     35 HN          -0.0310     1.5570    -5.1220 hn         1 XIL       0.320500
@<TRIPOS>BOND
     1     1     2 1   
     2     1     9 1   
     3     1    16 1   
     4     1    19 1   
     5     2     3 1   
     6     2     4 1   
     7     2    20 1   
     8     3    21 1   
     9     4     5 1   
    10     4     6 1   
    11     4    22 1   
    12     5    23 1   
    13     6     7 1   
    14     6     8 1   
    15     6    24 1   
    16     7    25 1   
    17     8     9 1   
    18     8    26 1   
    19     8    27 1   
    20    10    11 1   
    21    10    18 1   
    22    10    35 1   
    23    11    12 1   
    24    11    13 2   
    25    12    14 1   
    26    12    15 1   
    27    12    28 1   
    28    14    29 1   
    29    15    16 1   
    30    15    17 1   
    31    15    30 1   
    32    17    18 1   
    33    17    31 1   
    34    17    32 1   
    35    18    33 1   
    36    18    34 1   
@<TRIPOS>SUBSTRUCTURE
     1 XIL         1 TEMP              0 ****  ****    0 ROOT
