@<TRIPOS>MOLECULE
XIM
   22    23     1     0     0
SMALL
abcg2


@<TRIPOS>ATOM
      1 C1           1.0670    -0.4140     0.1090 cc         1 XIM       0.358800
      2 C2          -0.1850    -1.2190     0.2820 c6         1 XIM       0.115000
      3 C3          -1.3980    -0.4560    -0.2480 c6         1 XIM       0.178300
      4 C4          -1.3730     0.9620     0.3110 c6         1 XIM       0.165300
      5 C5          -0.1620     1.7080    -0.2530 c6         1 XIM       0.029600
      6 N1           1.0400     0.9230    -0.0720 na         1 XIM      -0.154500
      7 C17          2.3380     1.3480    -0.1450 cc         1 XIM      -0.223000
      8 C18          3.0950     0.2220     0.0040 cd         1 XIM       0.237900
      9 N21          2.2920    -0.8710     0.1670 nd         1 XIM      -0.672000
     10 O2          -0.1140    -2.4470    -0.3960 oh         1 XIM      -0.713000
     11 O3          -2.5930    -1.0750     0.1420 oh         1 XIM      -0.640000
     12 O4          -2.5540     1.6170    -0.0640 oh         1 XIM      -0.686000
     13 H2          -0.3430    -1.3800     1.3590 h1         1 XIM       0.058700
     14 H3          -1.3180    -0.3990    -1.3460 h1         1 XIM       0.061700
     15 H4          -1.2800     0.9070     1.4050 h1         1 XIM       0.051700
     16 H51         -0.3190     1.8980    -1.3170 h1         1 XIM       0.066700
     17 H52         -0.0390     2.6690     0.2480 h1         1 XIM       0.066700
     18 H17          2.5960     2.3830    -0.2920 h4         1 XIM       0.158000
     19 H18          4.1710     0.1450     0.0050 h4         1 XIM       0.040100
     20 HO2          0.5660    -2.9860     0.0210 ho         1 XIM       0.532000
     21 HO3         -2.5880    -1.9750    -0.2000 ho         1 XIM       0.462000
     22 HO4         -2.6320     2.4230     0.4560 ho         1 XIM       0.506000
@<TRIPOS>BOND
     1     1     2 1   
     2     1     6 1   
     3     1     9 2   
     4     2     3 1   
     5     2    10 1   
     6     2    13 1   
     7     3     4 1   
     8     3    11 1   
     9     3    14 1   
    10     4     5 1   
    11     4    12 1   
    12     4    15 1   
    13     5     6 1   
    14     5    16 1   
    15     5    17 1   
    16     6     7 1   
    17     7     8 2   
    18     7    18 1   
    19     8     9 1   
    20     8    19 1   
    21    10    20 1   
    22    11    21 1   
    23    12    22 1   
@<TRIPOS>SUBSTRUCTURE
     1 XIM         1 TEMP              0 ****  ****    0 ROOT
