@<TRIPOS>MOLECULE
XIM
   22    23     1     0     0
SMALL
No Charge or Current Charge


@<TRIPOS>ATOM
      1 C1           1.0490    -0.4430     0.1480 cc         1 XIM       0.358800
      2 C2          -0.2670    -1.1540     0.4450 c6         1 XIM       0.115000
      3 C3          -1.4430    -0.3170    -0.1430 c6         1 XIM       0.178300
      4 C4          -1.3340     1.1730     0.3150 c6         1 XIM       0.165300
      5 C5          -0.0300     1.8250    -0.2300 c6         1 XIM       0.029600
      6 N1           1.1270     0.9100    -0.1140 na         1 XIM      -0.154500
      7 C17          2.4510     1.2260    -0.3160 cc         1 XIM      -0.223000
      8 C18          3.1310     0.0450    -0.1660 cd         1 XIM       0.237900
      9 N21          2.2590    -0.9880     0.1210 nd         1 XIM      -0.672000
     10 O2          -0.2960    -2.5080    -0.0710 oh         1 XIM      -0.713000
     11 O3          -2.7020    -0.8860     0.2640 oh         1 XIM      -0.640000
     12 O4          -2.4850     1.9090    -0.1310 oh         1 XIM      -0.686000
     13 H2          -0.3880    -1.1790     1.5380 h1         1 XIM       0.058700
     14 H3          -1.3630    -0.3430    -1.2410 h1         1 XIM       0.061700
     15 H4          -1.2890     1.1850     1.4150 h1         1 XIM       0.051700
     16 H51         -0.1610     2.0830    -1.2900 h1         1 XIM       0.066700
     17 H52          0.1810     2.7520     0.3210 h1         1 XIM       0.066700
     18 H17          2.8030     2.2240    -0.5480 h4         1 XIM       0.158000
     19 H18          4.1990    -0.1200    -0.2510 h4         1 XIM       0.040100
     20 HO2          0.6400    -2.8280    -0.0360 ho         1 XIM       0.532000
     21 HO3         -2.5780    -1.8600     0.1820 ho         1 XIM       0.462000
     22 HO4         -3.2380     1.2770    -0.0370 ho         1 XIM       0.506000
@<TRIPOS>BOND
     1     1     2 1   
     2     1     6 1   
     3     1     9 2   
     4     2     3 1   
     5     2    10 1   
     6     2    13 1   
     7     3     4 1   
     8     3    11 1   
     9     3    14 1   
    10     4     5 1   
    11     4    12 1   
    12     4    15 1   
    13     5     6 1   
    14     5    16 1   
    15     5    17 1   
    16     6     7 1   
    17     7     8 2   
    18     7    18 1   
    19     8     9 1   
    20     8    19 1   
    21    10    20 1   
    22    11    21 1   
    23    12    22 1   
@<TRIPOS>SUBSTRUCTURE
     1 XIM         1 TEMP              0 ****  ****    0 ROOT
