@<TRIPOS>MOLECULE
XIN
   73    77     1     0     0
SMALL
No Charge or Current Charge


@<TRIPOS>ATOM
      1 C1          -3.4000     0.6440    -0.6250 cc         1 XIN      -0.320400
      2 C2          -4.8050     0.3030    -0.3430 ca         1 XIN      -0.011800
      3 C3          -2.3380    -0.2170    -0.7450 cf         1 XIN       0.336800
      4 C4          -3.3500     2.1330    -0.6900 c          1 XIN       0.579200
      5 C5          -5.5130     1.4780    -0.1690 ca         1 XIN       0.019600
      6 C6          -5.4880    -0.9240    -0.3590 ca         1 XIN      -0.104000
      7 C7          -2.1620    -1.6160    -0.2670 ca         1 XIN      -0.104800
      8 C11         -6.8880     1.5130     0.0810 ca         1 XIN      -0.084000
      9 C12         -6.8760    -0.9290    -0.0970 ca         1 XIN      -0.076000
     10 C15          0.0970     0.5180    -0.5780 ca         1 XIN       0.271000
     11 C16         -7.5880     0.2820     0.1380 ca         1 XIN      -0.133600
     12 C17         -2.6730    -3.3970     1.3380 ca         1 XIN      -0.114500
     13 C18         -1.0550    -3.7990    -0.4260 ca         1 XIN      -0.114500
     14 C19          1.1000     1.2000    -1.2840 ca         1 XIN      -0.118000
     15 C21         -9.0770     0.2810     0.4110 c          1 XIN       0.608700
     16 C23          2.3840     1.3580    -0.7320 ca         1 XIN      -0.092500
     17 C24          1.6820     0.1520     1.2440 ca         1 XIN      -0.092500
     18 O25         -9.6350    -0.9730     0.4330 os         1 XIN      -0.440100
     19 O26         -9.7190     1.3080     0.5950 o          1 XIN      -0.496000
     20 C27          2.6740     0.8940     0.5680 ca         1 XIN      -0.047000
     21 C30          5.1720     0.5730     0.2910 c          1 XIN       0.602100
     22 C31          4.2020     1.1300     2.5350 c3         1 XIN       0.094300
     23 C32          6.5940     0.7700     0.9300 c3         1 XIN       0.094800
     24 C35          9.0800     0.8870     0.7630 c6         1 XIN       0.165300
     25 C36          7.9240    -1.1010    -0.0800 c6         1 XIN       0.165300
     26 C37         10.3440     0.5070    -0.0750 c6         1 XIN       0.163800
     27 C38          9.1870    -1.4800    -0.9180 c6         1 XIN       0.163800
     28 C40         11.6540    -1.3390    -1.0770 c3         1 XIN       0.153100
     29 O33          5.0450     0.1620    -0.8610 o          1 XIN      -0.557100
     30 N34          7.8150     0.3760     0.1490 n3         1 XIN      -0.700600
     31 N39         10.4500    -0.9660    -0.3060 n3         1 XIN      -0.719600
     32 N29          4.0280     0.9090     1.0780 n          1 XIN      -0.250400
     33 C20          0.3990    -0.0090     0.6900 ca         1 XIN      -0.118000
     34 N8          -1.1670     0.3870    -1.1640 nu         1 XIN      -0.812000
     35 C14         -1.2420    -2.4880    -0.8960 ca         1 XIN      -0.078000
     36 C22         -1.7740    -4.2570     0.6890 ca         1 XIN      -0.094000
     37 C13         -2.8600    -2.0860     0.8680 ca         1 XIN      -0.078000
     38 C28        -11.0480    -1.0840     0.6850 c3         1 XIN       0.153900
     39 N9          -4.6200     2.5220    -0.3750 ns         1 XIN      -0.386100
     40 O10         -2.4230     2.8790    -0.9690 o          1 XIN      -0.599000
     41 H6          -4.9770    -1.8540    -0.5880 ha         1 XIN       0.123000
     42 H11         -7.4000     2.4640     0.2100 ha         1 XIN       0.138000
     43 H12         -7.3970    -1.8840    -0.0950 ha         1 XIN       0.127000
     44 H17         -3.2180    -3.7430     2.2140 ha         1 XIN       0.120500
     45 H18         -0.3510    -4.4600    -0.9270 ha         1 XIN       0.120500
     46 H19          0.8940     1.5940    -2.2750 ha         1 XIN       0.128000
     47 H23          3.1450     1.8750    -1.3120 ha         1 XIN       0.126500
     48 H24          1.8950    -0.3050     2.2080 ha         1 XIN       0.126500
     49 H31          4.5160     0.1960     3.0180 h1         1 XIN       0.041700
     50 H31A         4.9530     1.9090     2.7150 h1         1 XIN       0.041700
     51 H31B         3.2600     1.4640     2.9860 h1         1 XIN       0.041700
     52 H32          6.6570     1.8390     1.1720 h1         1 XIN       0.048700
     53 H32A         6.5980     0.2310     1.8860 h1         1 XIN       0.048700
     54 H35          9.1980     0.4800     1.7780 h1         1 XIN       0.038950
     55 H35A         9.0410     1.9820     0.8590 h1         1 XIN       0.038950
     56 H36          7.0360    -1.4800    -0.6050 h1         1 XIN       0.038950
     57 H36A         7.9740    -1.6290     0.8840 h1         1 XIN       0.038950
     58 H37         10.2960     1.0390    -1.0370 h1         1 XIN       0.040950
     59 H37A        11.2370     0.8760     0.4520 h1         1 XIN       0.040950
     60 H38          9.2280    -2.5750    -1.0130 h1         1 XIN       0.040950
     61 H38A         9.0660    -1.0740    -1.9340 h1         1 XIN       0.040950
     62 H40         12.5630    -0.9890    -0.5700 h1         1 XIN       0.030700
     63 H40A        11.7240    -2.4300    -1.1820 h1         1 XIN       0.030700
     64 H40B        11.6290    -0.8980    -2.0830 h1         1 XIN       0.030700
     65 H20         -0.3520    -0.5480     1.2570 ha         1 XIN       0.128000
     66 HN8         -1.3920     1.2160    -1.7170 hn         1 XIN       0.544000
     67 H14         -0.6770    -2.1530    -1.7640 ha         1 XIN       0.127000
     68 H22         -1.6280    -5.2710     1.0540 ha         1 XIN       0.117000
     69 H13         -3.5310    -1.4240     1.4110 ha         1 XIN       0.127000
     70 H28        -11.3570    -2.1370     0.6740 h1         1 XIN       0.047700
     71 H28A       -11.3050    -0.6650     1.6670 h1         1 XIN       0.047700
     72 H28B       -11.6260    -0.5520    -0.0820 h1         1 XIN       0.047700
     73 HN9         -4.8950     3.4960    -0.3680 hn         1 XIN       0.339500
@<TRIPOS>BOND
     1     1     2 1   
     2     1     3 2   
     3     1     4 1   
     4     2     5 ar  
     5     2     6 ar  
     6     3     7 1   
     7     3    34 1   
     8     4    39 1   
     9     4    40 2   
    10     5     8 ar  
    11     5    39 1   
    12     6     9 ar  
    13     6    41 1   
    14     7    35 ar  
    15     7    37 ar  
    16     8    11 ar  
    17     8    42 1   
    18     9    11 ar  
    19     9    43 1   
    20    10    14 ar  
    21    10    33 ar  
    22    10    34 1   
    23    11    15 1   
    24    12    36 ar  
    25    12    37 ar  
    26    12    44 1   
    27    13    35 ar  
    28    13    36 ar  
    29    13    45 1   
    30    14    16 ar  
    31    14    46 1   
    32    15    18 1   
    33    15    19 2   
    34    16    20 ar  
    35    16    47 1   
    36    17    20 ar  
    37    17    33 ar  
    38    17    48 1   
    39    18    38 1   
    40    20    32 1   
    41    21    23 1   
    42    21    29 2   
    43    21    32 1   
    44    22    32 1   
    45    22    49 1   
    46    22    50 1   
    47    22    51 1   
    48    23    30 1   
    49    23    52 1   
    50    23    53 1   
    51    24    26 1   
    52    24    30 1   
    53    24    54 1   
    54    24    55 1   
    55    25    27 1   
    56    25    30 1   
    57    25    56 1   
    58    25    57 1   
    59    26    31 1   
    60    26    58 1   
    61    26    59 1   
    62    27    31 1   
    63    27    60 1   
    64    27    61 1   
    65    28    31 1   
    66    28    62 1   
    67    28    63 1   
    68    28    64 1   
    69    33    65 1   
    70    34    66 1   
    71    35    67 1   
    72    36    68 1   
    73    37    69 1   
    74    38    70 1   
    75    38    71 1   
    76    38    72 1   
    77    39    73 1   
@<TRIPOS>SUBSTRUCTURE
     1 XIN         1 TEMP              0 ****  ****    0 ROOT
