@<TRIPOS>MOLECULE
XIN
   73    77     1     0     0
SMALL
bcc


@<TRIPOS>ATOM
      1 C1          -3.4420     1.2120    -0.0560 cc         1 XIN      -0.320400
      2 C2          -4.6280     0.3920    -0.1830 ca         1 XIN      -0.011800
      3 C3          -2.1350     0.8610     0.2150 cf         1 XIN       0.336800
      4 C4          -3.8560     2.5940    -0.2990 c          1 XIN       0.721700
      5 C5          -5.6960     1.2740    -0.4470 ca         1 XIN       0.019600
      6 C6          -4.8980    -0.9730    -0.1480 ca         1 XIN      -0.122000
      7 C7          -1.7840    -0.5330     0.5580 ca         1 XIN      -0.104800
      8 C11         -6.9890     0.8450    -0.6360 ca         1 XIN      -0.102000
      9 C12         -6.1970    -1.4230    -0.3410 ca         1 XIN      -0.094000
     10 C15          0.2050     1.6300     0.4660 ca         1 XIN       0.132600
     11 C16         -7.2440    -0.5290    -0.5760 ca         1 XIN      -0.133600
     12 C17         -1.9090    -2.3930     2.0770 ca         1 XIN      -0.132500
     13 C18         -0.6890    -2.6020     0.0140 ca         1 XIN      -0.132500
     14 C19          1.1330     2.2620    -0.3580 ca         1 XIN      -0.136000
     15 C21         -8.6390    -0.9770    -0.7790 c          1 XIN       0.657700
     16 C23          2.4860     2.1960    -0.0760 ca         1 XIN      -0.110500
     17 C24          2.0080     0.8560     1.8520 ca         1 XIN      -0.110500
     18 O25         -8.7750    -2.2930    -0.7050 os         1 XIN      -0.416900
     19 O26         -9.5650    -0.2280    -0.9920 o          1 XIN      -0.545000
     20 C27          2.9370     1.4770     1.0250 ca         1 XIN       0.045600
     21 C30          5.1680     0.8200     0.4430 c          1 XIN       0.669100
     22 C31          4.7310     1.7910     2.6760 c3         1 XIN       0.094300
     23 C32          6.6160     0.6980     0.8970 c3         1 XIN       0.094800
     24 C35          8.8330     0.2320     0.1300 c6         1 XIN       0.165300
     25 C36          7.1870    -1.4800     0.0660 c6         1 XIN       0.165300
     26 C37          9.6410    -0.5070    -0.9190 c6         1 XIN       0.163800
     27 C38          8.0000    -2.2230    -0.9770 c6         1 XIN       0.163800
     28 C40         10.2080    -2.6640    -1.7900 c3         1 XIN       0.153100
     29 O33          4.7960     0.4350    -0.6500 o          1 XIN      -0.557100
     30 N34          7.4190    -0.0500    -0.0320 n3         1 XIN      -0.700600
     31 N39          9.4120    -1.9350    -0.8310 n3         1 XIN      -0.719600
     32 N29          4.3170     1.4020     1.3350 n          1 XIN      -0.410000
     33 C20          0.6500     0.9460     1.5920 ca         1 XIN      -0.136000
     34 N8          -1.1560     1.7710     0.1430 nu         1 XIN      -0.618400
     35 C14         -1.0040    -1.2910    -0.3090 ca         1 XIN      -0.096000
     36 C22         -1.1370    -3.1530     1.2080 ca         1 XIN      -0.112000
     37 C13         -2.2390    -1.0870     1.7510 ca         1 XIN      -0.096000
     38 C28        -10.0830    -2.8330    -0.8850 c3         1 XIN       0.130700
     39 N9          -5.2080     2.5650    -0.4930 ns         1 XIN      -0.453100
     40 O10         -3.1600     3.6090    -0.3340 o          1 XIN      -0.674500
     41 H6          -4.1140    -1.6970     0.0170 ha         1 XIN       0.141000
     42 H11         -7.7860     1.5500    -0.8310 ha         1 XIN       0.156000
     43 H12         -6.3810    -2.4870    -0.3090 ha         1 XIN       0.145000
     44 H17         -2.2580    -2.8180     3.0090 ha         1 XIN       0.138500
     45 H18         -0.0890    -3.1930    -0.6650 ha         1 XIN       0.138500
     46 H19          0.7930     2.8110    -1.2280 ha         1 XIN       0.146000
     47 H23          3.1870     2.7140    -0.7170 ha         1 XIN       0.144500
     48 H24          2.3400     0.3060     2.7240 ha         1 XIN       0.144500
     49 H31          4.8280     0.9380     3.3490 h1         1 XIN       0.041700
     50 H31A         5.6780     2.3260     2.6530 h1         1 XIN       0.041700
     51 H31B         3.9900     2.4710     3.0880 h1         1 XIN       0.041700
     52 H32          7.0200     1.7130     0.9800 h1         1 XIN       0.048700
     53 H32A         6.6570     0.2790     1.9170 h1         1 XIN       0.048700
     54 H35          9.1980    -0.0520     1.1330 h1         1 XIN       0.038950
     55 H35A         9.0010     1.3060     0.0170 h1         1 XIN       0.038950
     56 H36          6.1310    -1.6950    -0.0960 h1         1 XIN       0.038950
     57 H36A         7.4500    -1.8580     1.0690 h1         1 XIN       0.038950
     58 H37          9.3790    -0.1140    -1.9180 h1         1 XIN       0.040950
     59 H37A        10.7030    -0.3040    -0.7620 h1         1 XIN       0.040950
     60 H38          7.8380    -3.2970    -0.8550 h1         1 XIN       0.040950
     61 H38A         7.6310    -1.9520    -1.9820 h1         1 XIN       0.040950
     62 H40         11.2680    -2.4610    -1.6290 h1         1 XIN       0.030700
     63 H40A        10.0510    -3.7370    -1.6690 h1         1 XIN       0.030700
     64 H40B         9.9710    -2.4060    -2.8340 h1         1 XIN       0.030700
     65 H20         -0.0470     0.4810     2.2740 ha         1 XIN       0.146000
     66 HN8         -1.4480     2.6890    -0.1860 hn         1 XIN       0.488800
     67 H14         -0.6500    -0.8620    -1.2380 ha         1 XIN       0.145000
     68 H22         -0.8840    -4.1750     1.4600 ha         1 XIN       0.135000
     69 H13         -2.8430    -0.4920     2.4240 ha         1 XIN       0.145000
     70 H28         -9.9800    -3.9080    -0.7750 h1         1 XIN       0.047700
     71 H28A       -10.7770    -2.4570    -0.1320 h1         1 XIN       0.047700
     72 H28B       -10.4750    -2.6070    -1.8770 h1         1 XIN       0.047700
     73 HN9         -5.7600     3.3820    -0.7010 hn         1 XIN       0.339500
@<TRIPOS>BOND
     1     1     2 1   
     2     1     3 2   
     3     1     4 1   
     4     2     5 ar  
     5     2     6 ar  
     6     3     7 1   
     7     3    34 1   
     8     4    39 1   
     9     4    40 2   
    10     5     8 ar  
    11     5    39 1   
    12     6     9 ar  
    13     6    41 1   
    14     7    35 ar  
    15     7    37 ar  
    16     8    11 ar  
    17     8    42 1   
    18     9    11 ar  
    19     9    43 1   
    20    10    14 ar  
    21    10    33 ar  
    22    10    34 1   
    23    11    15 1   
    24    12    36 ar  
    25    12    37 ar  
    26    12    44 1   
    27    13    35 ar  
    28    13    36 ar  
    29    13    45 1   
    30    14    16 ar  
    31    14    46 1   
    32    15    18 1   
    33    15    19 2   
    34    16    20 ar  
    35    16    47 1   
    36    17    20 ar  
    37    17    33 ar  
    38    17    48 1   
    39    18    38 1   
    40    20    32 1   
    41    21    23 1   
    42    21    29 2   
    43    21    32 1   
    44    22    32 1   
    45    22    49 1   
    46    22    50 1   
    47    22    51 1   
    48    23    30 1   
    49    23    52 1   
    50    23    53 1   
    51    24    26 1   
    52    24    30 1   
    53    24    54 1   
    54    24    55 1   
    55    25    27 1   
    56    25    30 1   
    57    25    56 1   
    58    25    57 1   
    59    26    31 1   
    60    26    58 1   
    61    26    59 1   
    62    27    31 1   
    63    27    60 1   
    64    27    61 1   
    65    28    31 1   
    66    28    62 1   
    67    28    63 1   
    68    28    64 1   
    69    33    65 1   
    70    34    66 1   
    71    35    67 1   
    72    36    68 1   
    73    37    69 1   
    74    38    70 1   
    75    38    71 1   
    76    38    72 1   
    77    39    73 1   
@<TRIPOS>SUBSTRUCTURE
     1 XIN         1 TEMP              0 ****  ****    0 ROOT
