@<TRIPOS>MOLECULE
XIO
  149   157     1     0     0
SMALL
No Charge or Current Charge


@<TRIPOS>ATOM
      1 C10        244.5990   183.7780   258.0030 c3         1 XIO      -0.029300
      2 C12        247.1160   183.8750   257.5860 cc         1 XIO       0.034267
      3 C13        247.9510   182.8800   258.0760 cd         1 XIO      -0.062833
      4 C16        248.7550   181.5550   255.4640 ca         1 XIO      -0.125167
      5 C18        250.8570   180.5280   254.7440 ca         1 XIO      -0.215533
      6 C22        250.9520   179.8810   256.0000 ca         1 XIO      -0.037667
      7 C23        249.9570   180.0750   256.9750 ca         1 XIO      -0.125167
      8 C25        249.0900   184.7410   258.3510 ca         1 XIO      -0.022867
      9 C26        247.8780   185.0820   257.7930 ca         1 XIO      -0.110800
     10 C28        248.5110   187.4120   257.7980 ca         1 XIO      -0.166667
     11 C29        249.7540   187.0610   258.3770 ca         1 XIO      -0.081667
     12 C17        249.7460   181.3670   254.4850 ca         1 XIO      -0.037667
     13 N19        251.9180   180.3290   253.7040 no         1 XIO       0.702533
     14 O21        251.8020   180.9290   252.6260 o          1 XIO      -0.427000
     15 O20        252.8670   179.5770   253.9700 o          1 XIO      -0.427000
     16 C15        248.8590   180.9150   256.7140 ca         1 XIO      -0.088000
     17 S14        247.6010   181.1480   257.9710 ss         1 XIO       0.077067
     18 N24        249.1880   183.3730   258.5330 na         1 XIO      -0.222367
     19 C30        250.0530   185.7120   258.6570 ca         1 XIO      -0.171667
     20 C27        247.5550   186.4170   257.4980 ca         1 XIO       0.007333
     21 C11        245.7490   183.7360   256.9660 c3         1 XIO      -0.028200
     22 C31        244.5330   185.1420   258.7550 c          1 XIO       0.712000
     23 O34        244.1190   186.1190   258.1460 o          1 XIO      -0.721500
     24 O32        244.7740   185.1520   259.9540 o          1 XIO      -0.721500
     25 N09        243.2910   183.4700   257.3740 ns         1 XIO      -0.471567
     26 C08        242.8550   182.2120   257.0240 c          1 XIO       0.591767
     27 O35        243.5170   181.2050   257.2370 o          1 XIO      -0.640767
     28 C07        241.5010   182.1660   256.3090 c3         1 XIO      -0.160400
     29 C06        240.3880   181.5920   257.2350 c3         1 XIO      -0.085400
     30 C05        238.9240   181.5840   256.6590 c3         1 XIO       0.148400
     31 C41        238.9280   180.6810   255.3770 c3         1 XIO      -0.085400
     32 C42        237.5680   180.3610   254.6840 c3         1 XIO      -0.160400
     33 C43        236.8270   179.1550   255.2830 c          1 XIO       0.591767
     34 O70        237.3510   178.0560   255.3970 o          1 XIO      -0.640767
     35 N44        235.5150   179.3860   255.6350 ns         1 XIO      -0.471567
     36 C45        234.5760   178.3560   256.1440 c3         1 XIO      -0.029300
     37 C66        233.2640   178.3540   255.2990 c          1 XIO       0.712000
     38 O69        232.6950   179.4210   255.1120 o          1 XIO      -0.721500
     39 O67        232.9400   177.3150   254.7400 o          1 XIO      -0.721500
     40 C46        234.2950   178.5300   257.6540 c3         1 XIO      -0.028200
     41 C47        233.6860   177.2920   258.2610 cc         1 XIO       0.034267
     42 C61        234.3890   176.1240   258.7250 ca         1 XIO      -0.110800
     43 C62        235.7670   175.8660   258.7800 ca         1 XIO       0.007333
     44 C63        236.1860   174.6210   259.2960 ca         1 XIO      -0.166667
     45 C64        235.2360   173.6700   259.7360 ca         1 XIO      -0.081667
     46 C65        233.8570   173.9560   259.6640 ca         1 XIO      -0.171667
     47 C60        233.4640   175.1990   259.1520 ca         1 XIO      -0.022867
     48 N59        232.1760   175.6770   258.9950 na         1 XIO      -0.222367
     49 C48        232.3500   176.9570   258.4340 cd         1 XIO      -0.062833
     50 S49        230.9990   178.0280   258.0070 ss         1 XIO       0.077067
     51 C50        229.9900   177.5010   259.3940 ca         1 XIO      -0.088000
     52 C51        230.4460   177.6390   260.7170 ca         1 XIO      -0.125167
     53 C52        229.6360   177.2410   261.7930 ca         1 XIO      -0.037667
     54 C53        228.3480   176.7060   261.5580 ca         1 XIO      -0.215533
     55 N54        227.4810   176.2870   262.7050 no         1 XIO       0.702533
     56 O56        227.9120   176.4460   263.8550 o          1 XIO      -0.427000
     57 O55        226.3680   175.8060   262.4530 o          1 XIO      -0.427000
     58 C57        227.8910   176.5770   260.2260 ca         1 XIO      -0.037667
     59 C58        228.7100   176.9750   259.1540 ca         1 XIO      -0.125167
     60 N36        238.4560   182.9160   256.2160 ns         1 XIO      -0.504900
     61 C37        238.6830   184.1650   256.7790 c          1 XIO       0.604100
     62 O40        239.3660   184.3560   257.7780 o          1 XIO      -0.588100
     63 C38        237.9720   185.3360   256.0140 c3         1 XIO       0.056800
     64 N39        238.5030   186.7320   256.2120 n8         1 XIO      -0.980200
     65 C04        237.9160   181.0000   257.7100 c3         1 XIO      -0.085400
     66 C03        237.9470   181.6030   259.1430 c3         1 XIO      -0.160400
     67 C02        236.7310   181.1800   259.9740 c          1 XIO       0.591767
     68 O01        235.6440   181.7280   259.8640 o          1 XIO      -0.640767
     69 N71        236.9740   180.1810   260.8900 ns         1 XIO      -0.471567
     70 C72        236.0190   179.6990   261.9200 c3         1 XIO      -0.029300
     71 C93        236.7600   178.8180   262.9720 c          1 XIO       0.712000
     72 O96        237.4350   177.8800   262.5690 o          1 XIO      -0.721500
     73 O94        236.7610   179.1890   264.1370 o          1 XIO      -0.721500
     74 C73        234.7950   178.9650   261.3220 c3         1 XIO      -0.028200
     75 C74        233.7980   178.5550   262.3750 cc         1 XIO       0.034267
     76 C88        233.5510   177.2290   262.8820 ca         1 XIO      -0.110800
     77 C89        234.1060   175.9990   262.4990 ca         1 XIO       0.007333
     78 C90        233.6620   174.8370   263.1650 ca         1 XIO      -0.166667
     79 C91        232.6890   174.9240   264.1880 ca         1 XIO      -0.081667
     80 C92        232.1550   176.1760   264.5570 ca         1 XIO      -0.171667
     81 C87        232.6100   177.3160   263.8820 ca         1 XIO      -0.022867
     82 N86        232.2140   178.6260   264.0840 na         1 XIO      -0.222367
     83 C75        232.9420   179.3520   263.1240 cd         1 XIO      -0.062833
     84 S76        232.8550   181.1160   263.0140 ss         1 XIO       0.077067
     85 C77        231.5420   181.0190   261.8020 ca         1 XIO      -0.088000
     86 C78        231.8200   181.2540   260.4440 ca         1 XIO      -0.125167
     87 C79        230.7930   181.1800   259.4870 ca         1 XIO      -0.037667
     88 C80        229.4700   180.8680   259.8820 ca         1 XIO      -0.215533
     89 N81        228.3790   180.7590   258.8630 no         1 XIO       0.702533
     90 O83        228.6660   180.9480   257.6740 o          1 XIO      -0.427000
     91 O82        227.2320   180.5060   259.2570 o          1 XIO      -0.427000
     92 C84        229.1960   180.6470   261.2520 ca         1 XIO      -0.037667
     93 C85        230.2270   180.7250   262.2030 ca         1 XIO      -0.125167
     94 H1         244.7960   183.0060   258.7590 h1         1 XIO       0.058700
     95 H4         250.0420   179.5710   257.9370 ha         1 XIO       0.142000
     96 H5         248.2890   188.4540   257.5820 ha         1 XIO       0.110667
     97 H6         250.4830   187.8360   258.6040 ha         1 XIO       0.087333
     98 H7         249.6410   181.8780   253.5270 ha         1 XIO       0.142667
     99 H8         249.9800   182.8430   258.8800 hn         1 XIO       0.340333
    100 H9         251.0070   185.4340   259.0980 ha         1 XIO       0.094667
    101 H10        246.5990   186.6800   257.0490 ha         1 XIO       0.154000
    102 H11        245.6980   182.7920   256.4100 hc         1 XIO       0.051533
    103 H12        245.5960   184.5290   256.2230 hc         1 XIO       0.051533
    104 H13        242.6670   184.2430   257.1670 hn         1 XIO       0.331833
    105 H14        241.2180   183.1760   255.9890 hc         1 XIO       0.052367
    106 H15        241.6110   181.5190   255.4320 hc         1 XIO       0.052367
    107 H16        240.6620   180.5630   257.5040 hc         1 XIO       0.068700
    108 H17        240.4210   182.1450   258.1790 hc         1 XIO       0.068700
    109 H18        239.4400   179.7360   255.5970 hc         1 XIO       0.068700
    110 H19        239.5460   181.1750   254.6170 hc         1 XIO       0.068700
    111 H20        237.7840   180.1010   253.6410 hc         1 XIO       0.052367
    112 H21        236.9180   181.2430   254.6640 hc         1 XIO       0.052367
    113 H22        235.1490   180.3140   255.4500 hn         1 XIO       0.331833
    114 H23        235.0400   177.3710   256.0040 h1         1 XIO       0.058700
    115 H24        235.2380   178.7490   258.1690 hc         1 XIO       0.051533
    116 H25        233.6500   179.4010   257.8190 hc         1 XIO       0.051533
    117 H26        236.4920   176.6010   258.4370 ha         1 XIO       0.154000
    118 H27        237.2480   174.3920   259.3550 ha         1 XIO       0.110667
    119 H28        235.5700   172.7140   260.1320 ha         1 XIO       0.087333
    120 H29        233.1190   173.2310   260.0000 ha         1 XIO       0.094667
    121 H30        231.3050   175.2240   259.2450 hn         1 XIO       0.340333
    122 H31        231.4280   178.0630   260.9100 ha         1 XIO       0.142000
    123 H32        230.0120   177.3580   262.8060 ha         1 XIO       0.142667
    124 H33        226.9030   176.1740   260.0110 ha         1 XIO       0.142667
    125 H34        228.3450   176.8770   258.1340 ha         1 XIO       0.142000
    126 H35        237.8790   182.9300   255.3850 hn         1 XIO       0.290500
    127 H36        236.9140   185.3180   256.3130 h1         1 XIO       0.038700
    128 H37        238.0130   185.1060   254.9400 h1         1 XIO       0.038700
    129 H38        237.8690   187.4100   255.7700 hn         1 XIO       0.394500
    130 H39        238.4620   186.9700   257.2120 hn         1 XIO       0.394500
    131 H41        236.8990   181.1290   257.3210 hc         1 XIO       0.068700
    132 H42        238.0770   179.9180   257.7990 hc         1 XIO       0.068700
    133 H43        238.8630   181.2630   259.6380 hc         1 XIO       0.052367
    134 H44        237.9310   182.6940   259.0750 hc         1 XIO       0.052367
    135 H45        237.9080   179.7870   260.8940 hn         1 XIO       0.331833
    136 H46        235.6540   180.5850   262.4550 h1         1 XIO       0.058700
    137 H47        234.2930   179.6050   260.5890 hc         1 XIO       0.051533
    138 H48        235.1420   178.0860   260.7710 hc         1 XIO       0.051533
    139 H49        234.8540   175.9380   261.7130 ha         1 XIO       0.154000
    140 H50        234.0700   173.8690   262.8860 ha         1 XIO       0.110667
    141 H51        232.3530   174.0210   264.6940 ha         1 XIO       0.087333
    142 H52        231.4070   176.2520   265.3430 ha         1 XIO       0.094667
    143 H53        231.5720   178.9830   264.7820 hn         1 XIO       0.340333
    144 H54        232.8320   181.4950   260.1290 ha         1 XIO       0.142000
    145 H55        231.0370   181.3580   258.4410 ha         1 XIO       0.142667
    146 H56        228.1900   180.4020   261.5870 ha         1 XIO       0.142667
    147 H57        230.0030   180.5500   263.2530 ha         1 XIO       0.142000
    148 H2         247.9060   182.2020   255.2480 ha         1 XIO       0.142000
    149 H3         251.7930   179.2260   256.2300 ha         1 XIO       0.142667
@<TRIPOS>BOND
     1     1    21 1   
     2     1    22 1   
     3     1    25 1   
     4     1    94 1   
     5     2     3 2   
     6     2     9 1   
     7     2    21 1   
     8     3    17 1   
     9     3    18 1   
    10     4    12 ar  
    11     4    16 ar  
    12     4   148 1   
    13     5     6 ar  
    14     5    12 ar  
    15     5    13 1   
    16     6     7 ar  
    17     6   149 1   
    18     7    16 ar  
    19     7    95 1   
    20     8     9 ar  
    21     8    18 1   
    22     8    19 ar  
    23     9    20 ar  
    24    10    11 ar  
    25    10    20 ar  
    26    10    96 1   
    27    11    19 ar  
    28    11    97 1   
    29    12    98 1   
    30    13    14 1   
    31    13    15 1   
    32    16    17 1   
    33    18    99 1   
    34    19   100 1   
    35    20   101 1   
    36    21   102 1   
    37    21   103 1   
    38    22    23 1   
    39    22    24 1   
    40    25    26 1   
    41    25   104 1   
    42    26    27 2   
    43    26    28 1   
    44    28    29 1   
    45    28   105 1   
    46    28   106 1   
    47    29    30 1   
    48    29   107 1   
    49    29   108 1   
    50    30    31 1   
    51    30    60 1   
    52    30    65 1   
    53    31    32 1   
    54    31   109 1   
    55    31   110 1   
    56    32    33 1   
    57    32   111 1   
    58    32   112 1   
    59    33    34 2   
    60    33    35 1   
    61    35    36 1   
    62    35   113 1   
    63    36    37 1   
    64    36    40 1   
    65    36   114 1   
    66    37    38 1   
    67    37    39 1   
    68    40    41 1   
    69    40   115 1   
    70    40   116 1   
    71    41    42 1   
    72    41    49 2   
    73    42    43 ar  
    74    42    47 ar  
    75    43    44 ar  
    76    43   117 1   
    77    44    45 ar  
    78    44   118 1   
    79    45    46 ar  
    80    45   119 1   
    81    46    47 ar  
    82    46   120 1   
    83    47    48 1   
    84    48    49 1   
    85    48   121 1   
    86    49    50 1   
    87    50    51 1   
    88    51    52 ar  
    89    51    59 ar  
    90    52    53 ar  
    91    52   122 1   
    92    53    54 ar  
    93    53   123 1   
    94    54    55 1   
    95    54    58 ar  
    96    55    56 1   
    97    55    57 1   
    98    58    59 ar  
    99    58   124 1   
   100    59   125 1   
   101    60    61 1   
   102    60   126 1   
   103    61    62 2   
   104    61    63 1   
   105    63    64 1   
   106    63   127 1   
   107    63   128 1   
   108    64   129 1   
   109    64   130 1   
   110    65    66 1   
   111    65   131 1   
   112    65   132 1   
   113    66    67 1   
   114    66   133 1   
   115    66   134 1   
   116    67    68 2   
   117    67    69 1   
   118    69    70 1   
   119    69   135 1   
   120    70    71 1   
   121    70    74 1   
   122    70   136 1   
   123    71    72 1   
   124    71    73 1   
   125    74    75 1   
   126    74   137 1   
   127    74   138 1   
   128    75    76 1   
   129    75    83 2   
   130    76    77 ar  
   131    76    81 ar  
   132    77    78 ar  
   133    77   139 1   
   134    78    79 ar  
   135    78   140 1   
   136    79    80 ar  
   137    79   141 1   
   138    80    81 ar  
   139    80   142 1   
   140    81    82 1   
   141    82    83 1   
   142    82   143 1   
   143    83    84 1   
   144    84    85 1   
   145    85    86 ar  
   146    85    93 ar  
   147    86    87 ar  
   148    86   144 1   
   149    87    88 ar  
   150    87   145 1   
   151    88    89 1   
   152    88    92 ar  
   153    89    90 1   
   154    89    91 1   
   155    92    93 ar  
   156    92   146 1   
   157    93   147 1   
@<TRIPOS>SUBSTRUCTURE
     1 XIO         1 TEMP              0 ****  ****    0 ROOT
