@<TRIPOS>MOLECULE
XIO
  149   157     1     0     0
SMALL
abcg2


@<TRIPOS>ATOM
      1 C10        244.8980   181.1660   257.5550 c3         1 XIO      -0.029300
      2 C12        246.2040   183.2470   258.2090 cc         1 XIO       0.034267
      3 C13        247.5300   183.2590   257.8650 cd         1 XIO      -0.062833
      4 C16        248.0940   185.2510   255.6810 ca         1 XIO      -0.125167
      5 C18        249.1230   186.0430   253.6720 ca         1 XIO      -0.215533
      6 C22        249.5960   184.7690   253.3840 ca         1 XIO      -0.037667
      7 C23        249.3190   183.7370   254.2570 ca         1 XIO      -0.125167
      8 C25        247.4420   184.2580   259.8500 ca         1 XIO      -0.022867
      9 C26        246.1300   183.8820   259.4870 ca         1 XIO      -0.110800
     10 C28        245.3370   184.8430   261.5300 ca         1 XIO      -0.166667
     11 C29        246.6520   185.2080   261.8730 ca         1 XIO      -0.081667
     12 C17        248.3740   186.2910   254.8140 ca         1 XIO      -0.037667
     13 N19        249.4180   187.1330   252.7620 no         1 XIO       0.702533
     14 O21        249.0550   188.2450   253.0710 o          1 XIO      -0.427000
     15 O20        250.0950   186.8930   251.7890 o          1 XIO      -0.427000
     16 C15        248.5690   183.9700   255.4110 ca         1 XIO      -0.088000
     17 S14        248.2610   182.5730   256.4440 ss         1 XIO       0.077067
     18 N24        248.2750   183.8560   258.8540 na         1 XIO      -0.222367
     19 C30        247.7180   184.9220   261.0470 ca         1 XIO      -0.171667
     20 C27        245.0680   184.1840   260.3500 ca         1 XIO       0.007333
     21 C11        245.0810   182.6850   257.4080 c3         1 XIO      -0.028200
     22 C31        244.6420   180.7700   259.0350 c          1 XIO       0.712000
     23 O34        243.4680   180.8930   259.4400 o          1 XIO      -0.721500
     24 O32        245.6270   180.3640   259.6760 o          1 XIO      -0.721500
     25 N09        243.8090   180.7840   256.6820 ns         1 XIO      -0.471567
     26 C08        243.4760   179.4960   256.4790 c          1 XIO       0.591767
     27 O35        244.1990   178.5600   256.7950 o          1 XIO      -0.640767
     28 C07        242.1170   179.2990   255.8410 c3         1 XIO      -0.160400
     29 C06        241.0360   179.3290   256.9300 c3         1 XIO      -0.085400
     30 C05        239.6030   179.5640   256.4350 c3         1 XIO       0.148400
     31 C41        239.2710   178.4510   255.4150 c3         1 XIO      -0.085400
     32 C42        237.8360   178.3430   254.9070 c3         1 XIO      -0.160400
     33 C43        236.8980   177.5560   255.8060 c          1 XIO       0.591767
     34 O70        237.2990   176.6480   256.5270 o          1 XIO      -0.640767
     35 N44        235.6070   177.8960   255.7040 ns         1 XIO      -0.471567
     36 C45        234.5260   177.1550   256.3060 c3         1 XIO      -0.029300
     37 C66        233.2600   177.2790   255.4240 c          1 XIO       0.712000
     38 O69        233.2440   178.2110   254.5980 o          1 XIO      -0.721500
     39 O67        232.3430   176.4770   255.6800 o          1 XIO      -0.721500
     40 C46        234.2360   177.6630   257.7400 c3         1 XIO      -0.028200
     41 C47        233.5150   176.6660   258.5750 cc         1 XIO       0.034267
     42 C61        234.1240   175.5690   259.2620 ca         1 XIO      -0.110800
     43 C62        235.4560   175.1880   259.4630 ca         1 XIO       0.007333
     44 C63        235.7180   174.0620   260.2170 ca         1 XIO      -0.166667
     45 C64        234.6720   173.3040   260.7720 ca         1 XIO      -0.081667
     46 C65        233.3500   173.6580   260.5930 ca         1 XIO      -0.171667
     47 C60        233.0890   174.8000   259.8370 ca         1 XIO      -0.022867
     48 N59        231.9080   175.3880   259.4990 na         1 XIO      -0.222367
     49 C48        232.1670   176.5170   258.7560 cd         1 XIO      -0.062833
     50 S49        230.8950   177.4600   258.0340 ss         1 XIO       0.077067
     51 C50        230.0950   178.2080   259.4150 ca         1 XIO      -0.088000
     52 C51        230.5700   178.1760   260.7240 ca         1 XIO      -0.125167
     53 C52        229.8880   178.8410   261.7240 ca         1 XIO      -0.037667
     54 C53        228.7430   179.5590   261.4130 ca         1 XIO      -0.215533
     55 N54        228.0430   180.2700   262.4630 no         1 XIO       0.702533
     56 O56        228.4860   180.2100   263.5880 o          1 XIO      -0.427000
     57 O55        227.0470   180.8890   262.1670 o          1 XIO      -0.427000
     58 C57        228.2560   179.6060   260.1130 ca         1 XIO      -0.037667
     59 C58        228.9290   178.9210   259.1230 ca         1 XIO      -0.125167
     60 N36        239.4430   180.8450   255.7340 ns         1 XIO      -0.504900
     61 C37        240.0550   182.0320   255.8960 c          1 XIO       0.604100
     62 O40        241.0160   182.2480   256.6210 o          1 XIO      -0.588100
     63 C38        239.4110   183.1580   255.0960 c3         1 XIO       0.056800
     64 N39        240.3110   184.2810   254.9510 n8         1 XIO      -0.980200
     65 C04        238.6260   179.5020   257.6240 c3         1 XIO      -0.085400
     66 C03        238.8960   180.5050   258.7450 c3         1 XIO      -0.160400
     67 C02        237.8120   180.5210   259.8080 c          1 XIO       0.591767
     68 O01        237.1820   181.5400   260.0690 o          1 XIO      -0.640767
     69 N71        237.6110   179.3600   260.4490 ns         1 XIO      -0.471567
     70 C72        236.7260   179.1970   261.5790 c3         1 XIO      -0.029300
     71 C93        237.2060   177.9990   262.4330 c          1 XIO       0.712000
     72 O96        237.7270   177.0550   261.8010 o          1 XIO      -0.721500
     73 O94        236.9380   178.0440   263.6440 o          1 XIO      -0.721500
     74 C73        235.2770   178.9770   261.0970 c3         1 XIO      -0.028200
     75 C74        234.2440   179.0840   262.1660 cc         1 XIO       0.034267
     76 C88        233.6510   178.0250   262.9220 ca         1 XIO      -0.110800
     77 C89        233.8050   176.6330   262.9180 ca         1 XIO       0.007333
     78 C90        233.0420   175.8770   263.7830 ca         1 XIO      -0.166667
     79 C91        232.1260   176.4800   264.6640 ca         1 XIO      -0.081667
     80 C92        231.9530   177.8480   264.6950 ca         1 XIO      -0.171667
     81 C87        232.7250   178.6100   263.8150 ca         1 XIO      -0.022867
     82 N86        232.7540   179.9550   263.6140 na         1 XIO      -0.222367
     83 C75        233.6490   180.2370   262.6100 cd         1 XIO      -0.062833
     84 S76        233.9460   181.8830   262.1190 ss         1 XIO       0.077067
     85 C77        232.6030   182.2100   261.0050 ca         1 XIO      -0.088000
     86 C78        232.1750   181.2790   260.0630 ca         1 XIO      -0.125167
     87 C79        231.1630   181.6010   259.1800 ca         1 XIO      -0.037667
     88 C80        230.5830   182.8600   259.2450 ca         1 XIO      -0.215533
     89 N81        229.5110   183.1940   258.3240 no         1 XIO       0.702533
     90 O83        229.1310   182.3380   257.5600 o          1 XIO      -0.427000
     91 O82        229.0530   184.3120   258.3670 o          1 XIO      -0.427000
     92 C84        231.0040   183.8040   260.1700 ca         1 XIO      -0.037667
     93 C85        232.0150   183.4720   261.0530 ca         1 XIO      -0.125167
     94 H1         245.8140   180.6820   257.2080 h1         1 XIO       0.058700
     95 H4         249.6930   182.7450   254.0370 ha         1 XIO       0.142000
     96 H5         244.5290   185.0840   262.2090 ha         1 XIO       0.110667
     97 H6         246.8300   185.7230   262.8080 ha         1 XIO       0.087333
     98 H7         248.0010   187.2800   255.0340 ha         1 XIO       0.142667
     99 H8         249.2740   183.9840   258.8300 hn         1 XIO       0.340333
    100 H9         248.7290   185.2030   261.3150 ha         1 XIO       0.094667
    101 H10        244.0570   183.8930   260.0970 ha         1 XIO       0.154000
    102 H11        245.2460   182.9050   256.3500 hc         1 XIO       0.051533
    103 H12        244.1510   183.1890   257.6870 hc         1 XIO       0.051533
    104 H13        243.0670   181.4590   256.5490 hn         1 XIO       0.331833
    105 H14        241.9380   180.0760   255.0960 hc         1 XIO       0.052367
    106 H15        242.1110   178.3430   255.3190 hc         1 XIO       0.052367
    107 H16        241.0310   178.3650   257.4470 hc         1 XIO       0.068700
    108 H17        241.2980   180.0700   257.6820 hc         1 XIO       0.068700
    109 H18        239.5500   177.4930   255.8580 hc         1 XIO       0.068700
    110 H19        239.9250   178.5860   254.5510 hc         1 XIO       0.068700
    111 H20        237.8580   177.8030   253.9550 hc         1 XIO       0.052367
    112 H21        237.3980   179.3150   254.6640 hc         1 XIO       0.052367
    113 H22        235.3180   178.5950   255.0350 hn         1 XIO       0.331833
    114 H23        234.8150   176.1030   256.3690 h1         1 XIO       0.058700
    115 H24        235.1920   177.8950   258.2140 hc         1 XIO       0.051533
    116 H25        233.6790   178.6040   257.6910 hc         1 XIO       0.051533
    117 H26        236.2630   175.7630   259.0270 ha         1 XIO       0.154000
    118 H27        236.7420   173.7540   260.3850 ha         1 XIO       0.110667
    119 H28        234.9090   172.4220   261.3540 ha         1 XIO       0.087333
    120 H29        232.5480   173.0710   261.0240 ha         1 XIO       0.094667
    121 H30        230.9920   175.0720   259.7740 hn         1 XIO       0.340333
    122 H31        231.4770   177.6450   260.9780 ha         1 XIO       0.142000
    123 H32        230.2580   178.7970   262.7370 ha         1 XIO       0.142667
    124 H33        227.3620   180.1610   259.8660 ha         1 XIO       0.142667
    125 H34        228.5460   178.9490   258.1100 ha         1 XIO       0.142000
    126 H35        238.6520   180.8690   255.1080 hn         1 XIO       0.290500
    127 H36        238.4610   183.3950   255.5990 h1         1 XIO       0.038700
    128 H37        239.1390   182.7920   254.1030 h1         1 XIO       0.038700
    129 H38        239.8530   184.9940   254.3990 hn         1 XIO       0.394500
    130 H39        240.4840   184.6980   255.8560 hn         1 XIO       0.394500
    131 H41        237.6110   179.6690   257.2510 hc         1 XIO       0.068700
    132 H42        238.6490   178.4840   258.0170 hc         1 XIO       0.068700
    133 H43        239.8510   180.2870   259.2290 hc         1 XIO       0.052367
    134 H44        238.9600   181.5170   258.3470 hc         1 XIO       0.052367
    135 H45        238.1630   178.5450   260.2200 hn         1 XIO       0.331833
    136 H46        236.7530   180.1090   262.1790 h1         1 XIO       0.058700
    137 H47        235.0700   179.7210   260.3250 hc         1 XIO       0.051533
    138 H48        235.2110   178.0020   260.6090 hc         1 XIO       0.051533
    139 H49        234.5070   176.1590   262.2430 ha         1 XIO       0.154000
    140 H50        233.1480   174.8000   263.7890 ha         1 XIO       0.110667
    141 H51        231.5440   175.8560   265.3300 ha         1 XIO       0.087333
    142 H52        231.2470   178.3130   265.3710 ha         1 XIO       0.094667
    143 H53        232.1940   180.6390   264.0980 hn         1 XIO       0.340333
    144 H54        232.6300   180.2990   260.0090 ha         1 XIO       0.142000
    145 H55        230.8520   180.8770   258.4420 ha         1 XIO       0.142667
    146 H56        230.5470   184.7810   260.2230 ha         1 XIO       0.142667
    147 H57        232.3360   184.1960   261.7900 ha         1 XIO       0.142000
    148 H2         247.5010   185.4480   256.5630 ha         1 XIO       0.142000
    149 H3         250.1770   184.5740   252.4950 ha         1 XIO       0.142667
@<TRIPOS>BOND
     1     1    21 1   
     2     1    22 1   
     3     1    25 1   
     4     1    94 1   
     5     2     3 2   
     6     2     9 1   
     7     2    21 1   
     8     3    17 1   
     9     3    18 1   
    10     4    12 ar  
    11     4    16 ar  
    12     4   148 1   
    13     5     6 ar  
    14     5    12 ar  
    15     5    13 1   
    16     6     7 ar  
    17     6   149 1   
    18     7    16 ar  
    19     7    95 1   
    20     8     9 ar  
    21     8    18 1   
    22     8    19 ar  
    23     9    20 ar  
    24    10    11 ar  
    25    10    20 ar  
    26    10    96 1   
    27    11    19 ar  
    28    11    97 1   
    29    12    98 1   
    30    13    14 1   
    31    13    15 1   
    32    16    17 1   
    33    18    99 1   
    34    19   100 1   
    35    20   101 1   
    36    21   102 1   
    37    21   103 1   
    38    22    23 1   
    39    22    24 1   
    40    25    26 1   
    41    25   104 1   
    42    26    27 2   
    43    26    28 1   
    44    28    29 1   
    45    28   105 1   
    46    28   106 1   
    47    29    30 1   
    48    29   107 1   
    49    29   108 1   
    50    30    31 1   
    51    30    60 1   
    52    30    65 1   
    53    31    32 1   
    54    31   109 1   
    55    31   110 1   
    56    32    33 1   
    57    32   111 1   
    58    32   112 1   
    59    33    34 2   
    60    33    35 1   
    61    35    36 1   
    62    35   113 1   
    63    36    37 1   
    64    36    40 1   
    65    36   114 1   
    66    37    38 1   
    67    37    39 1   
    68    40    41 1   
    69    40   115 1   
    70    40   116 1   
    71    41    42 1   
    72    41    49 2   
    73    42    43 ar  
    74    42    47 ar  
    75    43    44 ar  
    76    43   117 1   
    77    44    45 ar  
    78    44   118 1   
    79    45    46 ar  
    80    45   119 1   
    81    46    47 ar  
    82    46   120 1   
    83    47    48 1   
    84    48    49 1   
    85    48   121 1   
    86    49    50 1   
    87    50    51 1   
    88    51    52 ar  
    89    51    59 ar  
    90    52    53 ar  
    91    52   122 1   
    92    53    54 ar  
    93    53   123 1   
    94    54    55 1   
    95    54    58 ar  
    96    55    56 1   
    97    55    57 1   
    98    58    59 ar  
    99    58   124 1   
   100    59   125 1   
   101    60    61 1   
   102    60   126 1   
   103    61    62 2   
   104    61    63 1   
   105    63    64 1   
   106    63   127 1   
   107    63   128 1   
   108    64   129 1   
   109    64   130 1   
   110    65    66 1   
   111    65   131 1   
   112    65   132 1   
   113    66    67 1   
   114    66   133 1   
   115    66   134 1   
   116    67    68 2   
   117    67    69 1   
   118    69    70 1   
   119    69   135 1   
   120    70    71 1   
   121    70    74 1   
   122    70   136 1   
   123    71    72 1   
   124    71    73 1   
   125    74    75 1   
   126    74   137 1   
   127    74   138 1   
   128    75    76 1   
   129    75    83 2   
   130    76    77 ar  
   131    76    81 ar  
   132    77    78 ar  
   133    77   139 1   
   134    78    79 ar  
   135    78   140 1   
   136    79    80 ar  
   137    79   141 1   
   138    80    81 ar  
   139    80   142 1   
   140    81    82 1   
   141    82    83 1   
   142    82   143 1   
   143    83    84 1   
   144    84    85 1   
   145    85    86 ar  
   146    85    93 ar  
   147    86    87 ar  
   148    86   144 1   
   149    87    88 ar  
   150    87   145 1   
   151    88    89 1   
   152    88    92 ar  
   153    89    90 1   
   154    89    91 1   
   155    92    93 ar  
   156    92   146 1   
   157    93   147 1   
@<TRIPOS>SUBSTRUCTURE
     1 XIO         1 TEMP              0 ****  ****    0 ROOT
