@<TRIPOS>MOLECULE
XIP
   30    31     1     0     0
SMALL
No Charge or Current Charge


@<TRIPOS>ATOM
      1 C1         140.7310     2.9250    -1.6650 ca         1 XIP      -0.181500
      2 C3        -141.7920     1.4040    -0.0780 ca         1 XIP      -0.074800
      3 C4         142.1670     1.0330     1.3140 ce         1 XIP      -0.198200
      4 C6        -140.0500     1.5080     2.7190 ca         1 XIP      -0.114800
      5 C13        142.2110     0.5970    -1.1520 ca         1 XIP      -0.061000
      6 C14       -141.8800     0.9470    -2.4740 ca         1 XIP      -0.181500
      7 N          140.8200     2.4490    -4.0150 nv         1 XIP      -1.080000
      8 C         -141.1380     2.1090    -2.7300 ca         1 XIP       0.280000
      9 O          135.6310     3.0930     4.6420 o          1 XIP      -0.720000
     10 C11       -137.7110     1.6510     2.0210 ca         1 XIP      -0.096000
     11 C12        139.0450     1.2950     1.7560 ca         1 XIP      -0.123000
     12 C2        -141.0600     2.5780    -0.3430 ca         1 XIP      -0.061000
     13 C5         141.4560     1.1290     2.4750 cf         1 XIP      -0.109200
     14 C7        -139.6890     2.0540     3.9640 ca         1 XIP      -0.123000
     15 C8         138.3570     2.4120     4.2330 ca         1 XIP      -0.096000
     16 C9        -137.3450     2.2200     3.2630 ca         1 XIP      -0.120600
     17 O1         135.0590     2.4160     2.6860 o          1 XIP      -0.720000
     18 H2        -140.1610     3.8310    -1.8560 ha         1 XIP       0.104500
     19 H4         143.1890     0.6590     1.3960 ha         1 XIP       0.153000
     20 H11       -142.7890    -0.3060    -0.9630 ha         1 XIP       0.116000
     21 H12        142.2040     0.3130    -3.2950 ha         1 XIP       0.104500
     22 H         -141.2310     1.9360    -4.7930 hn         1 XIP       0.441000
     23 H1         140.4030     3.3570    -4.2140 hn         1 XIP       0.441000
     24 H9        -136.9580     1.4760     1.2550 ha         1 XIP       0.127500
     25 H10        139.2870     0.8360     0.8020 ha         1 XIP       0.090000
     26 H3        -140.7500     3.2230     0.4760 ha         1 XIP       0.116000
     27 H5         141.9870     0.8410     3.3850 ha         1 XIP       0.157000
     28 H6        -140.4470     2.2120     4.7280 ha         1 XIP       0.090000
     29 H7         138.1120     2.8400     5.2030 ha         1 XIP       0.127500
     30 C10       -135.9010     2.6050     3.5520 c          1 XIP       0.711600
@<TRIPOS>BOND
     1     1     8 ar  
     2     1    12 ar  
     3     1    18 1   
     4     2     3 1   
     5     2     5 ar  
     6     2    12 ar  
     7     3    13 2   
     8     3    19 1   
     9     4    11 ar  
    10     4    13 1   
    11     4    14 ar  
    12     5     6 ar  
    13     5    20 1   
    14     6     8 ar  
    15     6    21 1   
    16     7     8 1   
    17     7    22 1   
    18     7    23 1   
    19     9    30 1   
    20    10    11 ar  
    21    10    16 ar  
    22    10    24 1   
    23    11    25 1   
    24    12    26 1   
    25    13    27 1   
    26    14    15 ar  
    27    14    28 1   
    28    15    16 ar  
    29    15    29 1   
    30    16    30 1   
    31    17    30 1   
@<TRIPOS>SUBSTRUCTURE
     1 XIP         1 TEMP              0 ****  ****    0 ROOT
