@<TRIPOS>MOLECULE
XIP
   30    31     1     0     0
SMALL
abcg2


@<TRIPOS>ATOM
      1 C1        -140.6590     2.9090    -1.5310 ca         1 XIP      -0.181500
      2 C3        -141.7560     1.3630    -0.0170 ca         1 XIP      -0.074800
      3 C4        -142.1490     0.9270     1.3260 ce         1 XIP      -0.198200
      4 C6        -140.0720     1.4410     2.6780 ca         1 XIP      -0.114800
      5 C13       -142.1920     0.6490    -1.1360 ca         1 XIP      -0.061000
      6 C14       -141.8510     1.0280    -2.4220 ca         1 XIP      -0.181500
      7 N         -140.6790     2.5250    -3.9170 nv         1 XIP      -1.080000
      8 C         -141.0680     2.1660    -2.6470 ca         1 XIP       0.280000
      9 O         -135.7560     3.3350     4.4470 o          1 XIP      -0.720000
     10 C11       -137.7360     1.4610     2.0490 ca         1 XIP      -0.096000
     11 C12       -139.0420     1.0700     1.8100 ca         1 XIP      -0.123000
     12 C2        -140.9980     2.5140    -0.2520 ca         1 XIP      -0.061000
     13 C5        -141.4620     1.0100     2.4740 cf         1 XIP      -0.109200
     14 C7        -139.7360     2.1920     3.8050 ca         1 XIP      -0.123000
     15 C8        -138.4270     2.5890     4.0370 ca         1 XIP      -0.096000
     16 C9        -137.4040     2.2340     3.1620 ca         1 XIP      -0.120600
     17 O1        -135.1160     2.2870     2.5830 o          1 XIP      -0.720000
     18 H2        -140.0750     3.8120    -1.6750 ha         1 XIP       0.104500
     19 H4        -143.1410     0.4880     1.3910 ha         1 XIP       0.153000
     20 H11       -142.8090    -0.2320    -0.9960 ha         1 XIP       0.116000
     21 H12       -142.2000     0.4420    -3.2640 ha         1 XIP       0.104500
     22 H         -141.2470     2.1740    -4.6710 hn         1 XIP       0.441000
     23 H1        -140.4300     3.4920    -4.0470 hn         1 XIP       0.441000
     24 H9        -136.9560     1.1570     1.3640 ha         1 XIP       0.127500
     25 H10       -139.2670     0.4600     0.9440 ha         1 XIP       0.090000
     26 H3        -140.6750     3.1240     0.5820 ha         1 XIP       0.116000
     27 H5        -141.9860     0.7100     3.3770 ha         1 XIP       0.157000
     28 H6        -140.5140     2.4750     4.5060 ha         1 XIP       0.090000
     29 H7        -138.1960     3.1810     4.9120 ha         1 XIP       0.127500
     30 C10       -135.9620     2.6590     3.4200 c          1 XIP       0.711600
@<TRIPOS>BOND
     1     1     8 ar  
     2     1    12 ar  
     3     1    18 1   
     4     2     3 1   
     5     2     5 ar  
     6     2    12 ar  
     7     3    13 2   
     8     3    19 1   
     9     4    11 ar  
    10     4    13 1   
    11     4    14 ar  
    12     5     6 ar  
    13     5    20 1   
    14     6     8 ar  
    15     6    21 1   
    16     7     8 1   
    17     7    22 1   
    18     7    23 1   
    19     9    30 1   
    20    10    11 ar  
    21    10    16 ar  
    22    10    24 1   
    23    11    25 1   
    24    12    26 1   
    25    13    27 1   
    26    14    15 ar  
    27    14    28 1   
    28    15    16 ar  
    29    15    29 1   
    30    16    30 1   
    31    17    30 1   
@<TRIPOS>SUBSTRUCTURE
     1 XIP         1 TEMP              0 ****  ****    0 ROOT
