@<TRIPOS>MOLECULE
XIR
   55    59     1     0     0
SMALL
abcg2


@<TRIPOS>ATOM
      1 C1           8.4970     5.9640    11.4080 c3         1 XIR      -0.115400
      2 C2           9.4010     5.5680    12.5130 cc         1 XIR       0.449800
      3 N1           9.0130     5.0940    13.6660 nd         1 XIR      -0.570100
      4 C3          10.1640     4.8400    14.3640 ca         1 XIR       0.042400
      5 C4          10.4080     4.3210    15.6260 ca         1 XIR      -0.021000
      6 C5          11.7350     4.1910    16.0060 ca         1 XIR      -0.169000
      7 C6          12.7730     4.5770    15.1430 cp         1 XIR       0.410500
      8 C7          14.1950     4.4330    15.5270 cp         1 XIR      -0.065500
      9 C8          15.1830     4.3330    14.5400 ca         1 XIR      -0.182000
     10 C9          16.4940     4.2000    14.9450 ca         1 XIR       0.372900
     11 N2          16.8900     4.1620    16.2130 nb         1 XIR      -0.737000
     12 C10         15.9570     4.2590    17.1580 ca         1 XIR       0.591900
     13 N3          16.3730     4.1770    18.4530 nv         1 XIR      -1.059900
     14 C11         14.5920     4.3990    16.8520 ca         1 XIR      -0.219000
     15 N4          12.5450     5.0690    13.9250 nb         1 XIR      -0.656000
     16 C12         11.2830     5.1780    13.5890 ca         1 XIR       0.351500
     17 N5          10.7690     5.6510    12.4050 na         1 XIR      -0.200100
     18 C13         11.5270     6.1060    11.3020 ca         1 XIR       0.002800
     19 C14         11.4330     7.4220    10.8700 ca         1 XIR      -0.099000
     20 C15         12.2160     7.8520     9.8150 ca         1 XIR      -0.118000
     21 C16         13.1130     7.0050     9.1520 ca         1 XIR       0.283000
     22 N6          13.8890     7.5130     8.1190 nh         1 XIR      -0.829400
     23 C17         15.2150     7.0050     7.8310 c6         1 XIR       0.217300
     24 C18         16.0340     8.1100     7.1850 c6         1 XIR       0.155300
     25 N7          15.3900     8.5950     5.9820 n3         1 XIR      -0.714600
     26 C19         16.1970     9.5830     5.3050 c3         1 XIR       0.152100
     27 C20         14.0680     9.1040     6.2860 c6         1 XIR       0.155300
     28 C21         13.2190     8.0300     6.9390 c6         1 XIR       0.217300
     29 C22         13.1570     5.6860     9.6120 ca         1 XIR       0.123000
     30 F1          13.9520     4.7930     9.0010 f          1 XIR      -0.177000
     31 C23         12.3970     5.2320    10.6710 ca         1 XIR      -0.110000
     32 H1           7.4790     5.6760    11.6560 hc         1 XIR       0.063033
     33 H2           8.5170     7.0420    11.2390 hc         1 XIR       0.063033
     34 H3           8.7820     5.4810    10.4730 hc         1 XIR       0.063033
     35 H4           9.6050     4.0190    16.2860 ha         1 XIR       0.135000
     36 H5          11.9680     3.7680    16.9730 ha         1 XIR       0.127000
     37 H6          14.9320     4.3550    13.4890 ha         1 XIR       0.141000
     38 H7          17.2800     4.1160    14.2010 h4         1 XIR       0.016100
     39 H8          17.3510     4.3450    18.6220 hn         1 XIR       0.471000
     40 H9          15.7610     4.5280    19.1700 hn         1 XIR       0.471000
     41 H10         13.8780     4.5000    17.6590 ha         1 XIR       0.119000
     42 H11         10.7770     8.1190    11.3740 ha         1 XIR       0.128000
     43 H12         12.1640     8.8880     9.5070 ha         1 XIR       0.127000
     44 H13         15.1970     6.1380     7.1590 h1         1 XIR       0.047950
     45 H14         15.7040     6.7070     8.7580 h1         1 XIR       0.047950
     46 H15         17.0190     7.7130     6.9280 h1         1 XIR       0.039450
     47 H16         16.1890     8.9190     7.9210 h1         1 XIR       0.039450
     48 H18         17.1680     9.1580     5.0460 h1         1 XIR       0.032033
     49 H19         15.7100     9.8930     4.3790 h1         1 XIR       0.032033
     50 H20         16.3760    10.4860     5.9090 h1         1 XIR       0.032033
     51 H21         14.1100     9.9840     6.9510 h1         1 XIR       0.039450
     52 H22         13.5840     9.4220     5.3590 h1         1 XIR       0.039450
     53 H23         12.2530     8.4530     7.2140 h1         1 XIR       0.047950
     54 H24         13.0310     7.2230     6.2150 h1         1 XIR       0.047950
     55 H25         12.4670     4.1960    10.9750 ha         1 XIR       0.147000
@<TRIPOS>BOND
     1     1     2 1   
     2     1    32 1   
     3     1    33 1   
     4     1    34 1   
     5     2     3 2   
     6     2    17 1   
     7     3     4 1   
     8     4     5 ar  
     9     4    16 ar  
    10     5     6 ar  
    11     5    35 1   
    12     6     7 ar  
    13     6    36 1   
    14     7     8 1   
    15     7    15 ar  
    16     8     9 ar  
    17     8    14 ar  
    18     9    10 ar  
    19     9    37 1   
    20    10    11 ar  
    21    10    38 1   
    22    11    12 ar  
    23    12    13 1   
    24    12    14 ar  
    25    13    39 1   
    26    13    40 1   
    27    14    41 1   
    28    15    16 ar  
    29    16    17 1   
    30    17    18 1   
    31    18    19 ar  
    32    18    31 ar  
    33    19    20 ar  
    34    19    42 1   
    35    20    21 ar  
    36    20    43 1   
    37    21    22 1   
    38    21    29 ar  
    39    22    23 1   
    40    22    28 1   
    41    23    24 1   
    42    23    44 1   
    43    23    45 1   
    44    24    25 1   
    45    24    46 1   
    46    24    47 1   
    47    25    26 1   
    48    25    27 1   
    49    26    48 1   
    50    26    49 1   
    51    26    50 1   
    52    27    28 1   
    53    27    51 1   
    54    27    52 1   
    55    28    53 1   
    56    28    54 1   
    57    29    30 1   
    58    29    31 ar  
    59    31    55 1   
@<TRIPOS>SUBSTRUCTURE
     1 XIR         1 TEMP              0 ****  ****    0 ROOT
