@<TRIPOS>MOLECULE
XIR
   55    59     1     0     0
SMALL
No Charge or Current Charge


@<TRIPOS>ATOM
      1 C1           8.5290     5.9680    11.3210 c3         1 XIR      -0.115400
      2 C2           9.4400     5.5730    12.4480 cc         1 XIR       0.449800
      3 N1           9.0170     5.1440    13.6520 nd         1 XIR      -0.570100
      4 C3          10.2100     4.8920    14.3400 ca         1 XIR       0.042400
      5 C4          10.3450     4.4220    15.6500 ca         1 XIR      -0.021000
      6 C5          11.6580     4.2410    16.1310 ca         1 XIR      -0.169000
      7 C6          12.7780     4.5370    15.2980 cp         1 XIR       0.410500
      8 C7          14.2060     4.3610    15.7610 cp         1 XIR      -0.065500
      9 C8          15.3020     4.3550    14.8540 ca         1 XIR      -0.182000
     10 C9          16.6180     4.1900    15.3200 ca         1 XIR       0.372900
     11 N2          16.9230     4.0340    16.6270 nb         1 XIR      -0.737000
     12 C10         15.9070     4.0400    17.4750 ca         1 XIR       0.591900
     13 N3          16.3310     3.8920    18.7330 nv         1 XIR      -1.059900
     14 C11         14.5620     4.1970    17.1260 ca         1 XIR      -0.219000
     15 N4          12.6020     4.9840    14.0290 nb         1 XIR      -0.656000
     16 C12         11.3380     5.1510    13.5880 ca         1 XIR       0.351500
     17 N5          10.8340     5.5750    12.3980 na         1 XIR      -0.200100
     18 C13         11.5780     6.0470    11.3190 ca         1 XIR       0.002800
     19 C14         11.4890     7.3930    10.9230 ca         1 XIR      -0.099000
     20 C15         12.2440     7.8610     9.8330 ca         1 XIR      -0.118000
     21 C16         13.1070     7.0040     9.1220 ca         1 XIR       0.283000
     22 N6          13.8440     7.5480     8.0310 nh         1 XIR      -0.829400
     23 C17         15.2340     7.0920     7.7040 c6         1 XIR       0.217300
     24 C18         16.0520     8.1780     6.9310 c6         1 XIR       0.155300
     25 N7          15.3450     8.6850     5.7140 n3         1 XIR      -0.714600
     26 C19         16.1400     9.6800     4.9640 c3         1 XIR       0.152100
     27 C20         13.9890     9.1940     6.0910 c6         1 XIR       0.155300
     28 C21         13.1270     8.1310     6.8510 c6         1 XIR       0.217300
     29 C22         13.1930     5.6440     9.5350 ca         1 XIR       0.123000
     30 F1          13.9830     4.7550     8.8850 f          1 XIR      -0.177000
     31 C23         12.4350     5.1770    10.6230 ca         1 XIR      -0.110000
     32 H1           7.5210     5.5670    11.4740 hc         1 XIR       0.063033
     33 H2           8.4540     7.0590    11.2500 hc         1 XIR       0.063033
     34 H3           8.9020     5.5860    10.3640 hc         1 XIR       0.063033
     35 H4           9.4760     4.2020    16.2650 ha         1 XIR       0.135000
     36 H5          11.8010     3.8650    17.1370 ha         1 XIR       0.127000
     37 H6          15.1430     4.4720    13.7860 ha         1 XIR       0.141000
     38 H7          17.4550     4.1850    14.6230 h4         1 XIR       0.016100
     39 H8          17.3260     4.0270    18.8640 hn         1 XIR       0.471000
     40 H9          15.7260     4.2200    19.4770 hn         1 XIR       0.471000
     41 H10         13.8140     4.2020    17.9110 ha         1 XIR       0.119000
     42 H11         10.8410     8.0810    11.4610 ha         1 XIR       0.128000
     43 H12         12.1710     8.9060     9.5460 ha         1 XIR       0.127000
     44 H13         15.1920     6.1840     7.0840 h1         1 XIR       0.047950
     45 H14         15.7790     6.8370     8.6250 h1         1 XIR       0.047950
     46 H15         17.0260     7.7480     6.6540 h1         1 XIR       0.039450
     47 H16         16.2570     9.0120     7.6200 h1         1 XIR       0.039450
     48 H18         17.1070     9.2560     4.6630 h1         1 XIR       0.032033
     49 H19         15.6100     9.9930     4.0540 h1         1 XIR       0.032033
     50 H20         16.3300    10.5720     5.5750 h1         1 XIR       0.032033
     51 H21         14.0880    10.0810     6.7340 h1         1 XIR       0.039450
     52 H22         13.4390     9.5110     5.1940 h1         1 XIR       0.039450
     53 H23         12.1860     8.6080     7.1630 h1         1 XIR       0.047950
     54 H24         12.8620     7.3270     6.1490 h1         1 XIR       0.047950
     55 H25         12.5140     4.1350    10.9210 ha         1 XIR       0.147000
@<TRIPOS>BOND
     1     1     2 1   
     2     1    32 1   
     3     1    33 1   
     4     1    34 1   
     5     2     3 2   
     6     2    17 1   
     7     3     4 1   
     8     4     5 ar  
     9     4    16 ar  
    10     5     6 ar  
    11     5    35 1   
    12     6     7 ar  
    13     6    36 1   
    14     7     8 1   
    15     7    15 ar  
    16     8     9 ar  
    17     8    14 ar  
    18     9    10 ar  
    19     9    37 1   
    20    10    11 ar  
    21    10    38 1   
    22    11    12 ar  
    23    12    13 1   
    24    12    14 ar  
    25    13    39 1   
    26    13    40 1   
    27    14    41 1   
    28    15    16 ar  
    29    16    17 1   
    30    17    18 1   
    31    18    19 ar  
    32    18    31 ar  
    33    19    20 ar  
    34    19    42 1   
    35    20    21 ar  
    36    20    43 1   
    37    21    22 1   
    38    21    29 ar  
    39    22    23 1   
    40    22    28 1   
    41    23    24 1   
    42    23    44 1   
    43    23    45 1   
    44    24    25 1   
    45    24    46 1   
    46    24    47 1   
    47    25    26 1   
    48    25    27 1   
    49    26    48 1   
    50    26    49 1   
    51    26    50 1   
    52    27    28 1   
    53    27    51 1   
    54    27    52 1   
    55    28    53 1   
    56    28    54 1   
    57    29    30 1   
    58    29    31 ar  
    59    31    55 1   
@<TRIPOS>SUBSTRUCTURE
     1 XIR         1 TEMP              0 ****  ****    0 ROOT
