@<TRIPOS>MOLECULE
XIS
   36    38     1     0     0
SMALL
bcc


@<TRIPOS>ATOM
      1 C1          -1.7990     1.3650     0.3160 ca         1 XIS       0.074000
      2 C2          -2.4060     1.2240    -0.9300 ca         1 XIS      -0.106250
      3 C3          -2.9250     2.3310    -1.5900 ca         1 XIS      -0.140500
      4 C4          -2.8380     3.5910    -1.0160 ca         1 XIS      -0.133000
      5 C5          -2.2390     3.7410     0.2280 ca         1 XIS      -0.140500
      6 C6          -1.7330     2.6340     0.8920 ca         1 XIS      -0.106250
      7 C7          -1.7080    -1.4800     0.3570 ca         1 XIS       0.074000
      8 C8          -1.0010    -2.1420    -0.6440 ca         1 XIS      -0.106250
      9 C9          -1.5520    -3.2460    -1.2820 ca         1 XIS      -0.140500
     10 O1           5.6380    -0.6830     0.4600 o          1 XIS      -0.822800
     11 O2           5.2540     0.7890    -1.1690 o          1 XIS      -0.822800
     12 P1          -1.0750    -0.0230     1.2670 p3         1 XIS      -0.385000
     13 C10         -2.8170    -3.6960    -0.9340 ca         1 XIS      -0.133000
     14 C11         -3.5300    -3.0430     0.0640 ca         1 XIS      -0.140500
     15 C12         -2.9740    -1.9500     0.7100 ca         1 XIS      -0.106250
     16 C13          0.6790     0.0320     0.7500 ca         1 XIS       0.030000
     17 C14          1.1570     0.7840    -0.3200 ca         1 XIS      -0.138500
     18 C15          2.5090     0.7840    -0.6330 ca         1 XIS      -0.112500
     19 C16          3.4180     0.0300     0.1030 ca         1 XIS      -0.119600
     20 C17          2.9360    -0.7270     1.1690 ca         1 XIS      -0.112500
     21 C18          1.5900    -0.7170     1.4960 ca         1 XIS      -0.138500
     22 C19          4.9040     0.0440    -0.2350 c          1 XIS       0.922200
     23 H1          -2.4770     0.2500    -1.3960 ha         1 XIS       0.139000
     24 H2          -3.3940     2.2050    -2.5570 ha         1 XIS       0.122750
     25 H3          -3.2390     4.4530    -1.5330 ha         1 XIS       0.118500
     26 H4          -2.1710     4.7200     0.6850 ha         1 XIS       0.122750
     27 H5          -1.2800     2.7630     1.8690 ha         1 XIS       0.139000
     28 H6          -0.0150    -1.8000    -0.9310 ha         1 XIS       0.139000
     29 H7          -0.9890    -3.7530    -2.0550 ha         1 XIS       0.122750
     30 H9          -3.2440    -4.5560    -1.4330 ha         1 XIS       0.118500
     31 H10         -4.5150    -3.3910     0.3450 ha         1 XIS       0.122750
     32 H11         -3.5340    -1.4570     1.4970 ha         1 XIS       0.139000
     33 H12          0.4750     1.3800    -0.9130 ha         1 XIS       0.111500
     34 H13          2.8650     1.3770    -1.4640 ha         1 XIS       0.148000
     35 H14          3.6270    -1.3180     1.7550 ha         1 XIS       0.148000
     36 H15          1.2440    -1.2980     2.3450 ha         1 XIS       0.111500
@<TRIPOS>BOND
     1     1     2 ar  
     2     1     6 ar  
     3     1    12 1   
     4     2     3 ar  
     5     2    23 1   
     6     3     4 ar  
     7     3    24 1   
     8     4     5 ar  
     9     4    25 1   
    10     5     6 ar  
    11     5    26 1   
    12     6    27 1   
    13     7     8 ar  
    14     7    12 1   
    15     7    15 ar  
    16     8     9 ar  
    17     8    28 1   
    18     9    13 ar  
    19     9    29 1   
    20    10    22 1   
    21    11    22 1   
    22    12    16 1   
    23    13    14 ar  
    24    13    30 1   
    25    14    15 ar  
    26    14    31 1   
    27    15    32 1   
    28    16    17 ar  
    29    16    21 ar  
    30    17    18 ar  
    31    17    33 1   
    32    18    19 ar  
    33    18    34 1   
    34    19    20 ar  
    35    19    22 1   
    36    20    21 ar  
    37    20    35 1   
    38    21    36 1   
@<TRIPOS>SUBSTRUCTURE
     1 XIS         1 TEMP              0 ****  ****    0 ROOT
