@<TRIPOS>MOLECULE
XIS
   36    38     1     0     0
SMALL
No Charge or Current Charge


@<TRIPOS>ATOM
      1 C1          -1.7340     1.2990     0.5860 ca         1 XIS       0.074000
      2 C2          -2.0450     1.3920    -0.7860 ca         1 XIS      -0.088250
      3 C3          -2.5770     2.5830    -1.3110 ca         1 XIS      -0.122500
      4 C4          -2.7980     3.6860    -0.4710 ca         1 XIS      -0.115000
      5 C5          -2.4860     3.5990     0.8960 ca         1 XIS      -0.122500
      6 C6          -1.9550     2.4080     1.4220 ca         1 XIS      -0.088250
      7 C7          -1.7460    -1.5880     0.3110 ca         1 XIS       0.074000
      8 C8          -0.9580    -2.6800    -0.1020 ca         1 XIS      -0.088250
      9 C9          -1.5210    -3.7070    -0.8800 ca         1 XIS      -0.122500
     10 O1           5.7340     0.3570     0.2140 o          1 XIS      -0.717500
     11 O2           5.0890     0.1560    -1.8240 o          1 XIS      -0.717500
     12 P1          -1.0210    -0.2340     1.3640 p3         1 XIS      -0.385000
     13 C10         -2.8800    -3.6550    -1.2350 ca         1 XIS      -0.115000
     14 C11         -3.6760    -2.5810    -0.8050 ca         1 XIS      -0.122500
     15 C12         -3.1120    -1.5540    -0.0270 ca         1 XIS      -0.088250
     16 C13          0.7170    -0.1120     0.7180 ca         1 XIS       0.030000
     17 C14          1.0240    -0.1720    -0.6520 ca         1 XIS      -0.120500
     18 C15          2.3580    -0.0690    -1.0860 ca         1 XIS      -0.094500
     19 C16          3.4110     0.1000    -0.1560 ca         1 XIS      -0.119600
     20 C17          3.0880     0.1610     1.2200 ca         1 XIS      -0.094500
     21 C18          1.7530     0.0560     1.6500 ca         1 XIS      -0.120500
     22 C19          4.8550     0.2130    -0.6250 c          1 XIS       0.711600
     23 H1          -1.8820     0.5460    -1.4470 ha         1 XIS       0.121000
     24 H2          -2.8180     2.6490    -2.3700 ha         1 XIS       0.104750
     25 H3          -3.2090     4.6080    -0.8780 ha         1 XIS       0.100500
     26 H4          -2.6560     4.4530     1.5490 ha         1 XIS       0.104750
     27 H5          -1.7140     2.3440     2.4800 ha         1 XIS       0.121000
     28 H6           0.0900    -2.7360     0.1810 ha         1 XIS       0.121000
     29 H7          -0.9060    -4.5440    -1.2020 ha         1 XIS       0.104750
     30 H9          -3.3160    -4.4500    -1.8360 ha         1 XIS       0.100500
     31 H10         -4.7310    -2.5450    -1.0700 ha         1 XIS       0.104750
     32 H11         -3.7370    -0.7320     0.3130 ha         1 XIS       0.121000
     33 H12          0.2370    -0.3080    -1.3870 ha         1 XIS       0.093500
     34 H13          2.5690    -0.1210    -2.1520 ha         1 XIS       0.130000
     35 H14          3.8720     0.2910     1.9630 ha         1 XIS       0.130000
     36 H15          1.5240     0.1060     2.7110 ha         1 XIS       0.093500
@<TRIPOS>BOND
     1     1     2 ar  
     2     1     6 ar  
     3     1    12 1   
     4     2     3 ar  
     5     2    23 1   
     6     3     4 ar  
     7     3    24 1   
     8     4     5 ar  
     9     4    25 1   
    10     5     6 ar  
    11     5    26 1   
    12     6    27 1   
    13     7     8 ar  
    14     7    12 1   
    15     7    15 ar  
    16     8     9 ar  
    17     8    28 1   
    18     9    13 ar  
    19     9    29 1   
    20    10    22 1   
    21    11    22 1   
    22    12    16 1   
    23    13    14 ar  
    24    13    30 1   
    25    14    15 ar  
    26    14    31 1   
    27    15    32 1   
    28    16    17 ar  
    29    16    21 ar  
    30    17    18 ar  
    31    17    33 1   
    32    18    19 ar  
    33    18    34 1   
    34    19    20 ar  
    35    19    22 1   
    36    20    21 ar  
    37    20    35 1   
    38    21    36 1   
@<TRIPOS>SUBSTRUCTURE
     1 XIS         1 TEMP              0 ****  ****    0 ROOT
