@<TRIPOS>MOLECULE
XIT
   31    32     1     0     0
SMALL
No Charge or Current Charge


@<TRIPOS>ATOM
      1 C17        115.6700   202.8430     0.2010 ca         1 XIT      -0.090000
      2 C8         118.2320   206.3330     1.8050 c3         1 XIT      -0.031100
      3 C6         117.3470   204.6150     0.1500 ca         1 XIT      -0.124300
      4 C10        120.0990   206.4510     3.5280 ca         1 XIT      -0.073000
      5 C9         119.4710   206.9970     2.3920 ca         1 XIT      -0.097300
      6 C3         115.0280   203.3820    -0.9390 ca         1 XIT      -0.128600
      7 C4         115.5700   204.5520    -1.5220 ca         1 XIT      -0.090000
      8 C5         116.7160   205.1610    -0.9820 ca         1 XIT      -0.137500
      9 C11        121.2450   207.0630     4.0660 ca         1 XIT      -0.176500
     10 C12        121.7680   208.2210     3.4720 ca         1 XIT       0.121100
     11 C14        121.1480   208.7710     2.3380 ca         1 XIT      -0.176500
     12 C15        120.0020   208.1600     1.7990 ca         1 XIT      -0.073000
     13 C16        116.8160   203.4540     0.7380 ca         1 XIT      -0.137500
     14 C2         113.7870   202.7220    -1.5220 c          1 XIT       0.712600
     15 C7         118.5860   205.2790     0.7360 c3         1 XIT      -0.013100
     16 O1         113.2650   203.2230    -2.5080 o          1 XIT      -0.721000
     17 O13        122.8780   208.8080     3.9990 oh         1 XIT      -0.543100
     18 O18        113.3530   201.7120    -0.9850 o          1 XIT      -0.721000
     19 H17        115.2800   201.9450     0.6770 ha         1 XIT       0.125500
     20 H8A        117.5740   207.0880     1.3580 hc         1 XIT       0.051700
     21 H8B        117.6480   205.8520     2.6000 hc         1 XIT       0.051700
     22 H4         115.1020   204.9950    -2.3990 ha         1 XIT       0.125500
     23 H5         117.1130   206.0600    -1.4460 ha         1 XIT       0.082000
     24 H11        121.7260   206.6380     4.9430 ha         1 XIT       0.112000
     25 H14        121.5470   209.6670     1.8710 ha         1 XIT       0.112000
     26 H15        119.5270   208.5880     0.9190 ha         1 XIT       0.114500
     27 H16        117.2910   203.0230     1.6170 ha         1 XIT       0.082000
     28 H7B        119.2440   204.5230     1.1830 hc         1 XIT       0.034200
     29 H7A        119.1700   205.7590    -0.0590 hc         1 XIT       0.034200
     30 H13        123.0970   209.5980     3.4590 ho         1 XIT       0.457000
     31 H10        119.7010   205.5510     3.9930 ha         1 XIT       0.114500
@<TRIPOS>BOND
     1     1     6 ar  
     2     1    13 ar  
     3     1    19 1   
     4     2     5 1   
     5     2    15 1   
     6     2    20 1   
     7     2    21 1   
     8     3     8 ar  
     9     3    13 ar  
    10     3    15 1   
    11     4     5 ar  
    12     4     9 ar  
    13     4    31 1   
    14     5    12 ar  
    15     6     7 ar  
    16     6    14 1   
    17     7     8 ar  
    18     7    22 1   
    19     8    23 1   
    20     9    10 ar  
    21     9    24 1   
    22    10    11 ar  
    23    10    17 1   
    24    11    12 ar  
    25    11    25 1   
    26    12    26 1   
    27    13    27 1   
    28    14    16 1   
    29    14    18 1   
    30    15    28 1   
    31    15    29 1   
    32    17    30 1   
@<TRIPOS>SUBSTRUCTURE
     1 XIT         1 TEMP              0 ****  ****    0 ROOT
