@<TRIPOS>MOLECULE
XIT
   31    32     1     0     0
SMALL
abcg2


@<TRIPOS>ATOM
      1 C17        115.7320   202.8200     0.1700 ca         1 XIT      -0.090000
      2 C8         118.1970   206.3960     1.7630 c3         1 XIT      -0.031100
      3 C6         117.3630   204.6080     0.1880 ca         1 XIT      -0.124300
      4 C10        120.0350   206.5050     3.4860 ca         1 XIT      -0.073000
      5 C9         119.4140   207.0440     2.3610 ca         1 XIT      -0.097300
      6 C3         115.0640   203.3890    -0.9120 ca         1 XIT      -0.128600
      7 C4         115.5630   204.5830    -1.4290 ca         1 XIT      -0.090000
      8 C5         116.6920   205.1820    -0.8900 ca         1 XIT      -0.137500
      9 C11        121.1870   207.0610     4.0190 ca         1 XIT      -0.176500
     10 C12        121.7540   208.1870     3.4260 ca         1 XIT       0.121100
     11 C14        121.1480   208.7400     2.3020 ca         1 XIT      -0.176500
     12 C15        119.9950   208.1680     1.7820 ca         1 XIT      -0.073000
     13 C16        116.8590   203.4210     0.7130 ca         1 XIT      -0.137500
     14 C2         113.8350   202.7170    -1.5170 c          1 XIT       0.712600
     15 C7         118.5710   205.2720     0.7850 c3         1 XIT      -0.013100
     16 O1         113.2800   203.3160    -2.4590 o          1 XIT      -0.721000
     17 O13        122.8750   208.6960     3.9800 oh         1 XIT      -0.543100
     18 O18        113.4950   201.6270    -1.0180 o          1 XIT      -0.721000
     19 H17        115.3670   201.8920     0.5920 ha         1 XIT       0.125500
     20 H8A        117.5960   207.1420     1.2380 hc         1 XIT       0.051700
     21 H8B        117.5650   205.9840     2.5540 hc         1 XIT       0.051700
     22 H4         115.0630   205.0460    -2.2700 ha         1 XIT       0.125500
     23 H5         117.0640   206.1060    -1.3200 ha         1 XIT       0.082000
     24 H11        121.6500   206.6260     4.8960 ha         1 XIT       0.112000
     25 H14        121.5730   209.6200     1.8300 ha         1 XIT       0.112000
     26 H15        119.5370   208.6150     0.9070 ha         1 XIT       0.114500
     27 H16        117.3640   202.9550     1.5520 ha         1 XIT       0.082000
     28 H7B        119.1800   204.5320     1.3110 hc         1 XIT       0.034200
     29 H7A        119.1980   205.6890    -0.0070 hc         1 XIT       0.034200
     30 H13        123.1740   209.4680     3.4870 ho         1 XIT       0.457000
     31 H10        119.6090   205.6300     3.9630 ha         1 XIT       0.114500
@<TRIPOS>BOND
     1     1     6 ar  
     2     1    13 ar  
     3     1    19 1   
     4     2     5 1   
     5     2    15 1   
     6     2    20 1   
     7     2    21 1   
     8     3     8 ar  
     9     3    13 ar  
    10     3    15 1   
    11     4     5 ar  
    12     4     9 ar  
    13     4    31 1   
    14     5    12 ar  
    15     6     7 ar  
    16     6    14 1   
    17     7     8 ar  
    18     7    22 1   
    19     8    23 1   
    20     9    10 ar  
    21     9    24 1   
    22    10    11 ar  
    23    10    17 1   
    24    11    12 ar  
    25    11    25 1   
    26    12    26 1   
    27    13    27 1   
    28    14    16 1   
    29    14    18 1   
    30    15    28 1   
    31    15    29 1   
    32    17    30 1   
@<TRIPOS>SUBSTRUCTURE
     1 XIT         1 TEMP              0 ****  ****    0 ROOT
