@<TRIPOS>MOLECULE
XIU
   51    55     1     0     0
SMALL
No Charge or Current Charge


@<TRIPOS>ATOM
      1 C10          9.9990    16.9170    26.3960 c          1 XIU       0.592100
      2 N12         10.7260    17.7530    27.2870 n          1 XIU      -0.242400
      3 C13         11.1070    19.1090    26.8220 c3         1 XIU       0.153300
      4 C15         10.7900    18.1090    29.7260 ca         1 XIU      -0.103000
      5 C17         11.7350    16.4240    31.2300 ca         1 XIU       0.015000
      6 C20         12.0570    15.9370    32.5780 cc         1 XIU      -0.173000
      7 C22         12.7310    14.7450    34.3200 cc         1 XIU       0.402400
      8 C24         11.8600    16.6460    33.7380 cd         1 XIU       0.259900
      9 C26         12.4820    19.1390    26.1670 ca         1 XIU      -0.111300
     10 C28         13.8800    19.2220    24.1660 ca         1 XIU      -0.105000
     11 C01          5.4470    17.8800    27.7470 ca         1 XIU      -0.076000
     12 C02          6.7380    17.3260    27.6290 ca         1 XIU      -0.110000
     13 C03          6.8830    16.2180    26.7820 ca         1 XIU      -0.064200
     14 C04          5.8540    15.6670    26.0850 ca         1 XIU       0.015400
     15 C05          4.5600    16.2010    26.1860 ca         1 XIU      -0.027000
     16 C06          4.3620    17.3200    27.0280 ca         1 XIU      -0.139000
     17 C09          9.3220    15.6580    26.9630 c3         1 XIU       0.004600
     18 C14         11.1690    17.3540    28.5990 ca         1 XIU      -0.075000
     19 C16         11.0890    17.6610    31.0240 ca         1 XIU      -0.102000
     20 C18         12.0530    15.6390    30.1030 ca         1 XIU      -0.102000
     21 C19         11.7510    16.0880    28.8060 ca         1 XIU      -0.103000
     22 C27         12.6080    19.2030    24.7650 ca         1 XIU      -0.083000
     23 C29         15.0350    19.1730    24.9670 ca         1 XIU      -0.095000
     24 C30         14.9140    19.1060    26.3640 ca         1 XIU       0.111000
     25 C31         13.6440    19.0890    26.9640 ca         1 XIU      -0.093000
     26 N07          7.9610    15.4620    26.4460 na         1 XIU       0.072600
     27 N08          6.3000    14.5810    25.3340 nc         1 XIU      -0.215400
     28 N21         12.6140    14.7340    32.9500 na         1 XIU      -0.291500
     29 N23         12.2820    15.8920    34.8190 nd         1 XIU      -0.670000
     30 N25          7.6110    14.4580    25.5660 nd         1 XIU      -0.156400
     31 O11          9.8600    17.2200    25.2140 o          1 XIU      -0.566100
     32 Cl32        16.3570    19.0410    27.3680 cl         1 XIU      -0.207000
     33 H132        10.3510    19.4900    26.1230 h1         1 XIU       0.070700
     34 H131        11.1130    19.8000    27.6730 h1         1 XIU       0.070700
     35 H151        10.2540    19.0470    29.6050 ha         1 XIU       0.129000
     36 H221        13.1410    13.9110    34.8780 h5         1 XIU       0.059100
     37 H241        11.4490    17.6390    33.8690 h4         1 XIU       0.039100
     38 H281        13.9710    19.2710    23.0830 ha         1 XIU       0.123000
     39 H011         5.2830    18.7410    28.3930 ha         1 XIU       0.115000
     40 H021         7.5810    17.7440    28.1760 ha         1 XIU       0.121000
     41 H051         3.7330    15.7640    25.6310 ha         1 XIU       0.134000
     42 H061         3.3690    17.7520    27.1240 ha         1 XIU       0.118000
     43 H091         9.2530    15.7390    28.0520 h1         1 XIU       0.092200
     44 H092         9.9440    14.7920    26.7160 h1         1 XIU       0.092200
     45 H161        10.7950    18.2810    31.8660 ha         1 XIU       0.120500
     46 H181        12.5320    14.6720    30.2250 ha         1 XIU       0.120500
     47 H191        12.0080    15.4580    27.9570 ha         1 XIU       0.129000
     48 H271        11.7190    19.2350    24.1370 ha         1 XIU       0.137000
     49 H291        16.0200    19.1860    24.5070 ha         1 XIU       0.130000
     50 H311        13.5630    19.0330    28.0470 ha         1 XIU       0.128000
     51 H1          12.8910    13.9680    32.3490 hn         1 XIU       0.355000
@<TRIPOS>BOND
     1     1     2 1   
     2     1    17 1   
     3     1    31 2   
     4     2     3 1   
     5     2    18 1   
     6     3     9 1   
     7     3    33 1   
     8     3    34 1   
     9     4    18 ar  
    10     4    19 ar  
    11     4    35 1   
    12     5     6 1   
    13     5    19 ar  
    14     5    20 ar  
    15     6     8 2   
    16     6    28 1   
    17     7    28 1   
    18     7    29 2   
    19     7    36 1   
    20     8    29 1   
    21     8    37 1   
    22     9    22 ar  
    23     9    25 ar  
    24    10    22 ar  
    25    10    23 ar  
    26    10    38 1   
    27    11    12 ar  
    28    11    16 ar  
    29    11    39 1   
    30    12    13 ar  
    31    12    40 1   
    32    13    14 ar  
    33    13    26 1   
    34    14    15 ar  
    35    14    27 1   
    36    15    16 ar  
    37    15    41 1   
    38    16    42 1   
    39    17    26 1   
    40    17    43 1   
    41    17    44 1   
    42    18    21 ar  
    43    19    45 1   
    44    20    21 ar  
    45    20    46 1   
    46    21    47 1   
    47    22    48 1   
    48    23    24 ar  
    49    23    49 1   
    50    24    25 ar  
    51    24    32 1   
    52    25    50 1   
    53    26    30 1   
    54    27    30 2   
    55    28    51 1   
@<TRIPOS>SUBSTRUCTURE
     1 XIU         1 TEMP              0 ****  ****    0 ROOT
