@<TRIPOS>MOLECULE
XIU
   51    55     1     0     0
SMALL
abcg2


@<TRIPOS>ATOM
      1 C10          9.5790    17.6160    26.9490 c          1 XIU       0.592100
      2 N12         10.5780    18.1740    27.6700 n          1 XIU      -0.242400
      3 C13         11.3050    19.3310    27.1480 c3         1 XIU       0.153300
      4 C15         10.6920    18.1510    30.1010 ca         1 XIU      -0.103000
      5 C17         12.0410    16.5140    31.2650 ca         1 XIU       0.015000
      6 C20         12.5190    15.9580    32.5220 cc         1 XIU      -0.173000
      7 C22         13.7270    14.7970    33.9420 cc         1 XIU       0.402400
      8 C24         12.0460    16.0880    33.8060 cd         1 XIU       0.259900
      9 C26         12.5520    18.9220    26.4080 ca         1 XIU      -0.111300
     10 C28         13.6520    18.2050    24.3860 ca         1 XIU      -0.105000
     11 C01          4.5940    17.8490    26.9640 ca         1 XIU      -0.076000
     12 C02          5.8890    17.5990    27.3590 ca         1 XIU      -0.110000
     13 C03          6.5380    16.5550    26.6960 ca         1 XIU      -0.064200
     14 C04          5.9260    15.8050    25.6910 ca         1 XIU       0.015400
     15 C05          4.6090    16.0720    25.3020 ca         1 XIU      -0.027000
     16 C06          3.9610    17.0990    25.9500 ca         1 XIU      -0.139000
     17 C09          8.8760    16.4260    27.6020 c3         1 XIU       0.004600
     18 C14         11.0570    17.5990    28.8780 ca         1 XIU      -0.075000
     19 C16         11.1820    17.6180    31.2790 ca         1 XIU      -0.102000
     20 C18         12.4010    15.9710    30.0300 ca         1 XIU      -0.102000
     21 C19         11.9220    16.5140    28.8490 ca         1 XIU      -0.103000
     22 C27         12.5080    18.6250    25.0480 ca         1 XIU      -0.083000
     23 C29         14.8530    18.0680    25.0670 ca         1 XIU      -0.095000
     24 C30         14.8880    18.3690    26.4190 ca         1 XIU       0.111000
     25 C31         13.7560    18.7990    27.0940 ca         1 XIU      -0.093000
     26 N07          7.7690    16.0010    26.7980 na         1 XIU       0.072600
     27 N08          6.8250    14.8750    25.2510 nc         1 XIU      -0.215400
     28 N21         13.5960    15.1190    32.6420 na         1 XIU      -0.291500
     29 N23         12.8020    15.3640    34.6760 nd         1 XIU      -0.670000
     30 N25          7.9060    15.0170    25.9130 nd         1 XIU      -0.156400
     31 O11          9.2220    18.0270    25.8620 o          1 XIU      -0.566100
     32 CL32        16.3790    18.2030    27.2890 cl         1 XIU      -0.207000
     33 H132        10.6390    19.8970    26.5000 h1         1 XIU       0.070700
     34 H131        11.5570    19.9710    27.9940 h1         1 XIU       0.070700
     35 H151        10.0260    19.0030    30.1290 ha         1 XIU       0.129000
     36 H221        14.5140    14.1500    34.2970 h5         1 XIU       0.059100
     37 H241        11.1880    16.6540    34.1370 h4         1 XIU       0.039100
     38 H281        13.6130    17.9810    23.3280 ha         1 XIU       0.123000
     39 H011         4.0420    18.6480    27.4420 ha         1 XIU       0.115000
     40 H021         6.3690    18.1800    28.1350 ha         1 XIU       0.121000
     41 H051         4.1240    15.4950    24.5260 ha         1 XIU       0.134000
     42 H061         2.9410    17.3410    25.6810 ha         1 XIU       0.118000
     43 H091         8.5170    16.6830    28.6010 h1         1 XIU       0.092200
     44 H092         9.5550    15.5810    27.7170 h1         1 XIU       0.092200
     45 H161        10.8980    18.0720    32.2190 ha         1 XIU       0.120500
     46 H181        13.0520    15.1080    29.9720 ha         1 XIU       0.120500
     47 H191        12.2160    16.0830    27.9000 ha         1 XIU       0.129000
     48 H271        11.5780    18.7240    24.5050 ha         1 XIU       0.137000
     49 H291        15.7450    17.7370    24.5520 ha         1 XIU       0.130000
     50 H311        13.8100    19.0390    28.1490 ha         1 XIU       0.128000
     51 H1          14.2160    14.8190    31.9060 hn         1 XIU       0.355000
@<TRIPOS>BOND
     1     1     2 1   
     2     1    17 1   
     3     1    31 2   
     4     2     3 1   
     5     2    18 1   
     6     3     9 1   
     7     3    33 1   
     8     3    34 1   
     9     4    18 ar  
    10     4    19 ar  
    11     4    35 1   
    12     5     6 1   
    13     5    19 ar  
    14     5    20 ar  
    15     6     8 2   
    16     6    28 1   
    17     7    28 1   
    18     7    29 2   
    19     7    36 1   
    20     8    29 1   
    21     8    37 1   
    22     9    22 ar  
    23     9    25 ar  
    24    10    22 ar  
    25    10    23 ar  
    26    10    38 1   
    27    11    12 ar  
    28    11    16 ar  
    29    11    39 1   
    30    12    13 ar  
    31    12    40 1   
    32    13    14 ar  
    33    13    26 1   
    34    14    15 ar  
    35    14    27 1   
    36    15    16 ar  
    37    15    41 1   
    38    16    42 1   
    39    17    26 1   
    40    17    43 1   
    41    17    44 1   
    42    18    21 ar  
    43    19    45 1   
    44    20    21 ar  
    45    20    46 1   
    46    21    47 1   
    47    22    48 1   
    48    23    24 ar  
    49    23    49 1   
    50    24    25 ar  
    51    24    32 1   
    52    25    50 1   
    53    26    30 1   
    54    27    30 2   
    55    28    51 1   
@<TRIPOS>SUBSTRUCTURE
     1 XIU         1 TEMP              0 ****  ****    0 ROOT
