@<TRIPOS>MOLECULE
XIX
   12    12     1     0     0
SMALL
No Charge or Current Charge


@<TRIPOS>ATOM
      1 N1           0.7630    -1.1820     0.0610 nc         1 XIX      -0.596800
      2 N2          -0.6010    -1.1150    -0.0430 na         1 XIX      -0.247700
      3 N4          -2.2460     0.6080    -0.1650 nv         1 XIX      -1.034900
      4 C6           1.0440     0.1010     0.0960 cd         1 XIX       0.768900
      5 N7           0.0240     0.9870     0.0140 nd         1 XIX      -0.793000
      6 N8           2.2830     0.5350     0.1790 nv         1 XIX      -1.005900
      7 C2          -0.9890     0.1880    -0.0660 cc         1 XIX       0.678400
      8 H2          -1.2080    -1.9260    -0.1040 hn         1 XIX       0.373000
      9 H41N        -2.9740    -0.0360     0.1210 hn         1 XIX       0.472000
     10 H42N        -2.3970     1.5850     0.0590 hn         1 XIX       0.472000
     11 H81N         2.9910    -0.1350    -0.0880 hn         1 XIX       0.456500
     12 H82N         2.4260     1.4910    -0.1150 hn         1 XIX       0.456500
@<TRIPOS>BOND
     1     1     2 1   
     2     1     4 2   
     3     2     7 1   
     4     2     8 1   
     5     3     7 1   
     6     3     9 1   
     7     3    10 1   
     8     4     5 1   
     9     4     6 1   
    10     5     7 2   
    11     6    11 1   
    12     6    12 1   
@<TRIPOS>SUBSTRUCTURE
     1 XIX         1 TEMP              0 ****  ****    0 ROOT
