@<TRIPOS>MOLECULE
XIX
   12    12     1     0     0
SMALL
abcg2


@<TRIPOS>ATOM
      1 N1           0.7310    -1.1550     0.0420 nc         1 XIX      -0.596800
      2 N2          -0.6310    -1.0810    -0.0390 na         1 XIX      -0.247700
      3 N4          -2.3110     0.5980    -0.1980 nv         1 XIX      -1.034900
      4 C6           1.0650     0.1110     0.0780 cd         1 XIX       0.768900
      5 N7           0.0320     0.9870     0.0210 nd         1 XIX      -0.793000
      6 N8           2.3610     0.5400     0.2280 nv         1 XIX      -1.005900
      7 C2          -1.0210     0.1940    -0.0560 cc         1 XIX       0.678400
      8 H2          -1.1910    -1.9160    -0.1010 hn         1 XIX       0.373000
      9 H41N        -3.0200    -0.0440     0.1180 hn         1 XIX       0.472000
     10 H42N        -2.4860     1.5460     0.0960 hn         1 XIX       0.472000
     11 H81N         3.0530    -0.1290    -0.0700 hn         1 XIX       0.456500
     12 H82N         2.5350     1.4500    -0.1690 hn         1 XIX       0.456500
@<TRIPOS>BOND
     1     1     2 1   
     2     1     4 2   
     3     2     7 1   
     4     2     8 1   
     5     3     7 1   
     6     3     9 1   
     7     3    10 1   
     8     4     5 1   
     9     4     6 1   
    10     5     7 2   
    11     6    11 1   
    12     6    12 1   
@<TRIPOS>SUBSTRUCTURE
     1 XIX         1 TEMP              0 ****  ****    0 ROOT
