@<TRIPOS>MOLECULE
XIY
   19    20     1     0     0
SMALL
bcc


@<TRIPOS>ATOM
      1 NG          -0.5490     1.3670     0.0710 nc         1 XIY      -0.578100
      2 CD1         -1.4070     0.3910    -0.0370 cd         1 XIY       0.410800
      3 NE1         -0.8170    -0.8260    -0.1430 na         1 XIY      -0.248300
      4 CE2          0.5370    -0.6280    -0.0970 ca         1 XIY      -0.079200
      5 CZ2          1.6210    -1.4960    -0.1490 ca         1 XIY      -0.133000
      6 CH2          2.8790    -0.9240    -0.0720 ca         1 XIY      -0.112000
      7 CZ3          3.0490     0.4630     0.0560 ca         1 XIY      -0.154000
      8 CE3          1.9630     1.3190     0.1100 ca         1 XIY      -0.066000
      9 CD2          0.6870     0.7630     0.0320 ca         1 XIY       0.068400
     10 C           -2.8870     0.5530    -0.1060 c3         1 XIY       0.119100
     11 O           -3.4880    -0.5830     0.4640 oh         1 XIY      -0.604800
     12 HE1         -1.2970    -1.7090    -0.2170 hn         1 XIY       0.316700
     13 HC1         -3.1550     1.4830     0.4070 h1         1 XIY       0.051200
     14 HC2         -3.1720     0.6770    -1.1590 h1         1 XIY       0.051200
     15 HZ2          1.4920    -2.5670    -0.2440 ha         1 XIY       0.135000
     16 HH2          3.7520    -1.5630    -0.1110 ha         1 XIY       0.129000
     17 HZ3          4.0510     0.8670     0.1140 ha         1 XIY       0.131000
     18 HE3          2.0970     2.3890     0.2090 ha         1 XIY       0.145000
     19 H           -4.4160    -0.5900     0.2140 ho         1 XIY       0.416000
@<TRIPOS>BOND
     1     1     2 2   
     2     1     9 1   
     3     2     3 1   
     4     2    10 1   
     5     3     4 1   
     6     3    12 1   
     7     4     5 ar  
     8     4     9 ar  
     9     5     6 ar  
    10     5    15 1   
    11     6     7 ar  
    12     6    16 1   
    13     7     8 ar  
    14     7    17 1   
    15     8     9 ar  
    16     8    18 1   
    17    10    11 1   
    18    10    13 1   
    19    10    14 1   
    20    11    19 1   
@<TRIPOS>SUBSTRUCTURE
     1 XIY         1 TEMP              0 ****  ****    0 ROOT
