@<TRIPOS>MOLECULE
XIY
   19    20     1     0     0
SMALL
No Charge or Current Charge


@<TRIPOS>ATOM
      1 NG          -0.5330     1.3850    -0.0170 nc         1 XIY      -0.578100
      2 CD1         -1.3980     0.3480    -0.0340 cd         1 XIY       0.410800
      3 NE1         -0.7800    -0.9110    -0.0490 na         1 XIY      -0.298600
      4 CE2          0.5530    -0.6150    -0.0410 ca         1 XIY      -0.079200
      5 CZ2          1.6470    -1.4900    -0.0500 ca         1 XIY      -0.115000
      6 CH2          2.9400    -0.9260    -0.0380 ca         1 XIY      -0.094000
      7 CZ3          3.1010     0.4790    -0.0180 ca         1 XIY      -0.136000
      8 CE3          1.9720     1.3270    -0.0100 ca         1 XIY      -0.048000
      9 CD2          0.6950     0.7450    -0.0220 ca         1 XIY       0.068400
     10 C           -2.9090     0.5450    -0.0360 c3         1 XIY       0.142300
     11 O           -3.6570    -0.6950    -0.0560 oh         1 XIY      -0.667000
     12 HE1         -1.2440    -1.8100    -0.0630 hn         1 XIY       0.367000
     13 HC1         -3.1740     1.1300     0.8550 h1         1 XIY       0.051200
     14 HC2         -3.1680     1.1550    -0.9120 h1         1 XIY       0.051200
     15 HZ2          1.5070    -2.5690    -0.0650 ha         1 XIY       0.117000
     16 HH2          3.8140    -1.5740    -0.0440 ha         1 XIY       0.111000
     17 HZ3          4.1000     0.9100    -0.0090 ha         1 XIY       0.113000
     18 HE3          2.0860     2.4080     0.0060 ha         1 XIY       0.127000
     19 H           -4.6130    -0.4570    -0.0560 ho         1 XIY       0.455000
@<TRIPOS>BOND
     1     1     2 2   
     2     1     9 1   
     3     2     3 1   
     4     2    10 1   
     5     3     4 1   
     6     3    12 1   
     7     4     5 ar  
     8     4     9 ar  
     9     5     6 ar  
    10     5    15 1   
    11     6     7 ar  
    12     6    16 1   
    13     7     8 ar  
    14     7    17 1   
    15     8     9 ar  
    16     8    18 1   
    17    10    11 1   
    18    10    13 1   
    19    10    14 1   
    20    11    19 1   
@<TRIPOS>SUBSTRUCTURE
     1 XIY         1 TEMP              0 ****  ****    0 ROOT
