@<TRIPOS>MOLECULE
XIZ
   17    17     1     0     0
SMALL
No Charge or Current Charge


@<TRIPOS>ATOM
      1 C1           3.0300    -0.0650    -0.0120 c          1 XIZ       0.695200
      2 O1           3.3240    -1.2510    -0.0230 o          1 XIZ      -0.719000
      3 O2           3.8570     0.8330    -0.0040 o          1 XIZ      -0.719000
      4 C2           1.5840     0.3250    -0.0070 ce         1 XIZ      -0.201200
      5 C3           0.5160    -0.5350    -0.0150 cf         1 XIZ      -0.250200
      6 C4          -0.9270    -0.2350    -0.0110 ca         1 XIZ       0.036200
      7 C7          -1.8670    -1.2800    -0.0200 ca         1 XIZ      -0.177500
      8 C8          -3.2390    -0.9790    -0.0160 ca         1 XIZ       0.320900
      9 C5          -2.8140     1.2940     0.0050 ca         1 XIZ       0.320900
     10 C6          -1.4250     1.0800     0.0020 ca         1 XIZ      -0.177500
     11 N4          -3.7150     0.2860    -0.0040 nb         1 XIZ      -0.706000
     12 HA           1.4090     1.3970     0.0030 ha         1 XIZ       0.144000
     13 H3           0.7440    -1.6030    -0.0250 ha         1 XIZ       0.194000
     14 H2          -1.5470    -2.3180    -0.0300 ha         1 XIZ       0.121000
     15 H6          -0.7610     1.9380     0.0100 ha         1 XIZ       0.121000
     16 H1          -3.9810    -1.7760    -0.0230 h4         1 XIZ      -0.002400
     17 H5          -3.2190     2.3050     0.0150 h4         1 XIZ      -0.002400
@<TRIPOS>BOND
     1     1     2 1   
     2     1     3 1   
     3     1     4 1   
     4     4     5 2   
     5     4    12 1   
     6     5     6 1   
     7     5    13 1   
     8     6     7 ar  
     9     6    10 ar  
    10     7     8 ar  
    11     7    14 1   
    12     8    11 ar  
    13     8    16 1   
    14     9    10 ar  
    15     9    11 ar  
    16     9    17 1   
    17    10    15 1   
@<TRIPOS>SUBSTRUCTURE
     1 XIZ         1 TEMP              0 ****  ****    0 ROOT
