@<TRIPOS>MOLECULE
XIZ
   17    17     1     0     0
SMALL
bcc


@<TRIPOS>ATOM
      1 H1           2.9840    -0.0800    -0.0190 c          1 XIZ       0.356000
      2 H1           3.2420    -1.2990    -0.0170 o          1 XIZ      -0.559000
      3 H2           3.8020     0.8620    -0.0240 o          1 XIZ      -0.559000
      4 H2           1.5260     0.3310    -0.0140 c2         1 XIZ      -0.132000
      5 H3           0.5220    -0.5460    -0.0010 c2         1 XIZ      -0.212000
      6 H4          -0.9060    -0.2270    -0.0010 ca         1 XIZ       0.048000
      7 H7          -1.8440    -1.2590    -0.0200 ca         1 XIZ      -0.195500
      8 H8          -3.1960    -0.9560    -0.0270 ca         1 XIZ      -0.079000
      9 H5          -2.7810     1.2710     0.0070 ca         1 XIZ      -0.079000
     10 H6          -1.4120     1.0750     0.0150 ca         1 XIZ      -0.195500
     11 H4          -3.6720     0.2830    -0.0140 nb         1 XIZ      -0.180000
     12 HA           1.3280     1.3990    -0.0240 ha         1 XIZ       0.094000
     13 H3           0.7650    -1.6040     0.0080 ha         1 XIZ       0.144000
     14 H2          -1.5260    -2.2940    -0.0330 ha         1 XIZ       0.139000
     15 H6          -0.7550     1.9350     0.0330 ha         1 XIZ       0.139000
     16 H1          -3.9280    -1.7570    -0.0440 ha         1 XIZ       0.134500
     17 H5          -3.1790     2.2800     0.0180 ha         1 XIZ       0.134500
@<TRIPOS>BOND
     1     1     2 1   
     2     1     3 1   
     3     1     4 1   
     4     4     5 2   
     5     4    12 1   
     6     5     6 1   
     7     5    13 1   
     8     6     7 ar  
     9     6    10 ar  
    10     7     8 ar  
    11     7    14 1   
    12     8    11 ar  
    13     8    16 1   
    14     9    10 ar  
    15     9    11 ar  
    16     9    17 1   
    17    10    15 1   
@<TRIPOS>SUBSTRUCTURE
     1 XIZ         1 TEMP              0 ****  ****    0 ROOT
