@<TRIPOS>MOLECULE
XIZ
   17    17     1     0     0
SMALL
abcg2


@<TRIPOS>ATOM
      1 C1           2.9840    -0.0800    -0.0190 c          1 XIZ       0.695200
      2 O1           3.2420    -1.2990    -0.0170 o          1 XIZ      -0.719000
      3 O2           3.8020     0.8620    -0.0240 o          1 XIZ      -0.719000
      4 C2           1.5260     0.3310    -0.0140 ce         1 XIZ      -0.201200
      5 C3           0.5220    -0.5460    -0.0010 cf         1 XIZ      -0.250200
      6 C4          -0.9060    -0.2270    -0.0010 ca         1 XIZ       0.036200
      7 C7          -1.8440    -1.2590    -0.0200 ca         1 XIZ      -0.177500
      8 C8          -3.1960    -0.9560    -0.0270 ca         1 XIZ       0.320900
      9 C5          -2.7810     1.2710     0.0070 ca         1 XIZ       0.320900
     10 C6          -1.4120     1.0750     0.0150 ca         1 XIZ      -0.177500
     11 N4          -3.6720     0.2830    -0.0140 nb         1 XIZ      -0.706000
     12 HA           1.3280     1.3990    -0.0240 ha         1 XIZ       0.144000
     13 H3           0.7650    -1.6040     0.0080 ha         1 XIZ       0.194000
     14 H2          -1.5260    -2.2940    -0.0330 ha         1 XIZ       0.121000
     15 H6          -0.7550     1.9350     0.0330 ha         1 XIZ       0.121000
     16 H1          -3.9280    -1.7570    -0.0440 h4         1 XIZ      -0.002400
     17 H5          -3.1790     2.2800     0.0180 h4         1 XIZ      -0.002400
@<TRIPOS>BOND
     1     1     2 1   
     2     1     3 1   
     3     1     4 1   
     4     4     5 2   
     5     4    12 1   
     6     5     6 1   
     7     5    13 1   
     8     6     7 ar  
     9     6    10 ar  
    10     7     8 ar  
    11     7    14 1   
    12     8    11 ar  
    13     8    16 1   
    14     9    10 ar  
    15     9    11 ar  
    16     9    17 1   
    17    10    15 1   
@<TRIPOS>SUBSTRUCTURE
     1 XIZ         1 TEMP              0 ****  ****    0 ROOT
