@<TRIPOS>MOLECULE
XJ0
   18    18     1     0     0
SMALL
No Charge or Current Charge


@<TRIPOS>ATOM
      1 OB           3.8330    -1.1900    -0.0340 o          1 XJ0      -0.723000
      2 C            3.5050    -0.0140    -0.0240 c          1 XJ0       0.696200
      3 OA           4.3050     0.9080    -0.0330 o          1 XJ0      -0.723000
      4 CA           2.0490     0.3330     0.0010 ce         1 XJ0      -0.218200
      5 CB           1.0080    -0.5550     0.0140 cf         1 XJ0      -0.224200
      6 CG          -0.4430    -0.2820     0.0380 ca         1 XJ0      -0.148800
      7 CD          -1.3760    -1.3420     0.0480 ca         1 XJ0       0.123400
      8 NE          -2.7060    -1.1190     0.0700 nb         1 XJ0      -0.252500
      9 CZ          -3.0900     0.1650     0.0830 ca         1 XJ0       0.338900
     10 NH2         -4.4270     0.3910     0.1030 nv         1 XJ0      -1.079900
     11 NH1         -2.3050     1.2520     0.0740 nb         1 XJ0      -0.252500
     12 C10         -0.9750     1.0260     0.0520 ca         1 XJ0       0.123400
     13 HB           1.8400     1.4000     0.0090 ha         1 XJ0       0.142000
     14 HC           1.2620    -1.6190     0.0050 ha         1 XJ0       0.191000
     15 HD          -1.0550    -2.3820     0.0380 h4         1 XJ0       0.022100
     16 H10         -0.3370     1.9080     0.0460 h4         1 XJ0       0.022100
     17 HH21        -5.0570    -0.3830    -0.0980 hn         1 XJ0       0.482500
     18 HH22        -4.7710     1.3290    -0.0950 hn         1 XJ0       0.482500
@<TRIPOS>BOND
     1     1     2 1   
     2     2     3 1   
     3     2     4 1   
     4     4     5 2   
     5     4    13 1   
     6     5     6 1   
     7     5    14 1   
     8     6     7 ar  
     9     6    12 ar  
    10     7     8 ar  
    11     7    15 1   
    12     8     9 ar  
    13     9    10 1   
    14     9    11 ar  
    15    10    17 1   
    16    10    18 1   
    17    11    12 ar  
    18    12    16 1   
@<TRIPOS>SUBSTRUCTURE
     1 XJ0         1 TEMP              0 ****  ****    0 ROOT
