@<TRIPOS>MOLECULE
XJ0
   18    18     1     0     0
SMALL
abcg2


@<TRIPOS>ATOM
      1 OB           3.7360    -1.2690    -0.0320 o          1 XJ0      -0.723000
      2 C            3.4660    -0.0510    -0.0250 c          1 XJ0       0.696200
      3 OA           4.2830     0.8940    -0.0400 o          1 XJ0      -0.723000
      4 CA           2.0100     0.3500     0.0040 ce         1 XJ0      -0.218200
      5 CB           1.0120    -0.5370     0.0240 cf         1 XJ0      -0.224200
      6 CG          -0.4160    -0.2580     0.0430 ca         1 XJ0      -0.148800
      7 CD          -1.3500    -1.2930     0.0440 ca         1 XJ0       0.123400
      8 NE          -2.6560    -1.1080     0.0530 nb         1 XJ0      -0.252500
      9 CZ          -3.0800     0.1600     0.0610 ca         1 XJ0       0.338900
     10 NH2         -4.4070     0.3730     0.0960 nv         1 XJ0      -1.079900
     11 NH1         -2.2830     1.2390     0.0640 nb         1 XJ0      -0.252500
     12 C10         -0.9850     1.0180     0.0550 ca         1 XJ0       0.123400
     13 HB           1.8040     1.4170     0.0040 ha         1 XJ0       0.142000
     14 HC           1.2780    -1.5910     0.0200 ha         1 XJ0       0.191000
     15 HD          -1.0110    -2.3250     0.0350 h4         1 XJ0       0.022100
     16 H10         -0.3550     1.9030     0.0540 h4         1 XJ0       0.022100
     17 HH21        -5.0290    -0.3950    -0.0870 hn         1 XJ0       0.482500
     18 HH22        -4.7570     1.3000    -0.0740 hn         1 XJ0       0.482500
@<TRIPOS>BOND
     1     1     2 1   
     2     2     3 1   
     3     2     4 1   
     4     4     5 2   
     5     4    13 1   
     6     5     6 1   
     7     5    14 1   
     8     6     7 ar  
     9     6    12 ar  
    10     7     8 ar  
    11     7    15 1   
    12     8     9 ar  
    13     9    10 1   
    14     9    11 ar  
    15    10    17 1   
    16    10    18 1   
    17    11    12 ar  
    18    12    16 1   
@<TRIPOS>SUBSTRUCTURE
     1 XJ0         1 TEMP              0 ****  ****    0 ROOT
