@<TRIPOS>MOLECULE
XJ1
   46    48     1     0     0
SMALL
No Charge or Current Charge


@<TRIPOS>ATOM
      1 C3          -5.3750    -0.9630     1.2230 c6         1 XJ1      -0.094900
      2 C4          -6.8760    -0.6140     1.0550 c6         1 XJ1      -0.072400
      3 C5          -7.2410    -0.4170    -0.4390 c6         1 XJ1       0.159500
      4 N8          -8.6600    -0.0520    -0.5820 n8         1 XJ1      -0.996200
      5 C6          -6.3340     0.6570    -1.0950 c6         1 XJ1      -0.072400
      6 C7          -4.8340     0.3060    -0.9210 c6         1 XJ1      -0.094900
      7 C2          -4.4710     0.1160     0.5760 c6         1 XJ1       0.244500
      8 N1          -3.0680    -0.2900     0.7090 nu         1 XJ1      -0.939100
      9 C9          -1.9760     0.5110     0.4580 ca         1 XJ1       0.576900
     10 N10         -0.8730    -0.2320     0.3050 nb         1 XJ1      -0.744000
     11 C14         -1.9740     1.9410     0.3830 ca         1 XJ1       0.201900
     12 N13         -0.8390     2.6510     0.1350 nb         1 XJ1      -0.612000
     13 C12          0.2810     1.8890    -0.0240 ca         1 XJ1       0.226900
     14 C11          0.2830     0.4500     0.0620 cp         1 XJ1       0.439500
     15 C15          1.5350    -0.3770    -0.1200 cp         1 XJ1      -0.166500
     16 C16          2.8300     0.1950     0.0280 ca         1 XJ1      -0.100000
     17 C20          1.4690    -1.7600    -0.4430 ca         1 XJ1      -0.098000
     18 C19          2.6340    -2.5230    -0.6160 ca         1 XJ1      -0.129000
     19 C18          3.8970    -1.9300    -0.4680 ca         1 XJ1      -0.102000
     20 C17          4.0050    -0.5650    -0.1430 ca         1 XJ1      -0.005800
     21 C21          5.3330     0.0950     0.0290 ce         1 XJ1      -0.243200
     22 C22          6.5900    -0.4400    -0.0810 cf         1 XJ1      -0.211200
     23 C23          7.8710     0.3070     0.1100 c          1 XJ1       0.695200
     24 O25          7.8280     1.4960     0.3890 o          1 XJ1      -0.722000
     25 O24          8.9120    -0.3160    -0.0240 o          1 XJ1      -0.722000
     26 H31C        -5.1370    -1.0580     2.2920 hc         1 XJ1       0.049450
     27 H32C        -5.1760    -1.9430     0.7680 hc         1 XJ1       0.049450
     28 H41C        -7.4900    -1.4140     1.4910 hc         1 XJ1       0.048450
     29 H42C        -7.1050     0.3000     1.6210 hc         1 XJ1       0.048450
     30 H2          -4.6420     1.0660     1.1090 h1         1 XJ1       0.060700
     31 H5          -7.0990    -1.3710    -0.9680 h1         1 XJ1       0.013700
     32 H81N        -8.8930    -0.0230    -1.5810 hn         1 XJ1       0.391000
     33 H82N        -9.2350    -0.8240    -0.2250 hn         1 XJ1       0.391000
     34 H61C        -6.5680     0.7450    -2.1650 hc         1 XJ1       0.048450
     35 H62C        -6.5340     1.6410    -0.6480 hc         1 XJ1       0.048450
     36 H71C        -4.6050    -0.6110    -1.4810 hc         1 XJ1       0.049450
     37 H72C        -4.2200     1.1030    -1.3620 hc         1 XJ1       0.049450
     38 H1          -2.8350    -1.2780     0.6660 hn         1 XJ1       0.492000
     39 H14         -2.8880     2.5180     0.5200 h4         1 XJ1       0.018100
     40 H12          1.1950     2.4390    -0.2400 h4         1 XJ1       0.039100
     41 H16          2.9310     1.2430     0.2940 ha         1 XJ1       0.114000
     42 H20          0.5060    -2.2490    -0.5710 ha         1 XJ1       0.113000
     43 H19          2.5570    -3.5780    -0.8670 ha         1 XJ1       0.098000
     44 H18          4.7830    -2.5420    -0.6060 ha         1 XJ1       0.119000
     45 H21          5.2660     1.1560     0.2780 ha         1 XJ1       0.191000
     46 H22          6.7080    -1.4920    -0.3270 ha         1 XJ1       0.142000
@<TRIPOS>BOND
     1     1     2 1   
     2     1     7 1   
     3     1    26 1   
     4     1    27 1   
     5     2     3 1   
     6     2    28 1   
     7     2    29 1   
     8     3     4 1   
     9     3     5 1   
    10     3    31 1   
    11     4    32 1   
    12     4    33 1   
    13     5     6 1   
    14     5    34 1   
    15     5    35 1   
    16     6     7 1   
    17     6    36 1   
    18     6    37 1   
    19     7     8 1   
    20     7    30 1   
    21     8     9 1   
    22     8    38 1   
    23     9    10 ar  
    24     9    11 ar  
    25    10    14 ar  
    26    11    12 ar  
    27    11    39 1   
    28    12    13 ar  
    29    13    14 ar  
    30    13    40 1   
    31    14    15 1   
    32    15    16 ar  
    33    15    17 ar  
    34    16    20 ar  
    35    16    41 1   
    36    17    18 ar  
    37    17    42 1   
    38    18    19 ar  
    39    18    43 1   
    40    19    20 ar  
    41    19    44 1   
    42    20    21 1   
    43    21    22 2   
    44    21    45 1   
    45    22    23 1   
    46    22    46 1   
    47    23    24 1   
    48    23    25 1   
@<TRIPOS>SUBSTRUCTURE
     1 XJ1         1 TEMP              0 ****  ****    0 ROOT
