@<TRIPOS>MOLECULE
XJ1
   46    48     1     0     0
SMALL
bcc


@<TRIPOS>ATOM
      1 C3          -5.3180    -1.0580     1.0800 c6         1 XJ1      -0.094900
      2 C4          -6.7630    -0.5760     1.1090 c6         1 XJ1      -0.072400
      3 C5          -7.2810    -0.2470    -0.2870 c6         1 XJ1       0.159500
      4 N8          -8.6390     0.2710    -0.1980 n8         1 XJ1      -0.885800
      5 C6          -6.3710     0.7810    -0.9500 c6         1 XJ1      -0.072400
      6 C7          -4.9270     0.2950    -0.9980 c6         1 XJ1      -0.094900
      7 C2          -4.4120    -0.0340     0.4040 c6         1 XJ1       0.244500
      8 N1          -3.0500    -0.5250     0.4050 nu         1 XJ1      -0.883900
      9 C9          -1.9500     0.2300     0.1990 ca         1 XJ1       0.576900
     10 N10         -0.7890    -0.4080     0.0800 nb         1 XJ1      -0.744000
     11 C14         -1.9830     1.6430     0.1350 ca         1 XJ1       0.201900
     12 N13         -0.8840     2.3360    -0.0570 nb         1 XJ1      -0.612000
     13 C12          0.2700     1.6890    -0.1820 ca         1 XJ1       0.226900
     14 C11          0.3210     0.3000    -0.1000 cp         1 XJ1       0.439500
     15 C15          1.5870    -0.4540    -0.2180 cp         1 XJ1      -0.166500
     16 C16          2.8210     0.1690    -0.0390 ca         1 XJ1      -0.118000
     17 C20          1.5630    -1.8190    -0.5010 ca         1 XJ1      -0.116000
     18 C19          2.7510    -2.5290    -0.6090 ca         1 XJ1      -0.147000
     19 C18          3.9700    -1.8980    -0.4320 ca         1 XJ1      -0.120000
     20 C17          4.0230    -0.5320    -0.1380 ca         1 XJ1      -0.005800
     21 C21          5.2760     0.1960     0.0760 ce         1 XJ1      -0.193200
     22 C22          6.5040    -0.3210     0.1500 cf         1 XJ1      -0.161200
     23 C23          7.7410     0.5180     0.3790 c          1 XJ1       0.905800
     24 O25          7.5970     1.7540     0.4740 o          1 XJ1      -0.827300
     25 O24          8.8130    -0.1170     0.4550 o          1 XJ1      -0.827300
     26 H31C        -4.9620    -1.2530     2.0940 hc         1 XJ1       0.049450
     27 H32C        -5.2580    -2.0070     0.5340 hc         1 XJ1       0.049450
     28 H41C        -7.3960    -1.3380     1.5720 hc         1 XJ1       0.048450
     29 H42C        -6.8410     0.3210     1.7330 hc         1 XJ1       0.048450
     30 H2          -4.4410     0.8790     1.0110 h1         1 XJ1       0.060700
     31 H5          -7.2240    -1.1710    -0.8880 h1         1 XJ1       0.013700
     32 H81N        -8.9860     0.4670    -1.1300 hn         1 XJ1       0.335800
     33 H82N        -9.2480    -0.4510     0.1690 hn         1 XJ1       0.335800
     34 H61C        -6.7250     0.9980    -1.9620 hc         1 XJ1       0.048450
     35 H62C        -6.4280     1.7210    -0.3890 hc         1 XJ1       0.048450
     36 H71C        -4.8540    -0.6040    -1.6190 hc         1 XJ1       0.049450
     37 H72C        -4.2930     1.0510    -1.4690 hc         1 XJ1       0.049450
     38 H1          -2.9140    -1.5200     0.3000 hn         1 XJ1       0.436800
     39 H14         -2.9090     2.1970     0.2360 h4         1 XJ1       0.018100
     40 H12          1.1510     2.2900    -0.3640 h4         1 XJ1       0.039100
     41 H16          2.8690     1.2240     0.2020 ha         1 XJ1       0.132000
     42 H20          0.6170    -2.3220    -0.6430 ha         1 XJ1       0.131000
     43 H19          2.7230    -3.5860    -0.8370 ha         1 XJ1       0.116000
     44 H18          4.8820    -2.4730    -0.5280 ha         1 XJ1       0.137000
     45 H21          5.1730     1.2710     0.1910 ha         1 XJ1       0.141000
     46 H22          6.6580    -1.3920     0.0540 ha         1 XJ1       0.092000
@<TRIPOS>BOND
     1     1     2 1   
     2     1     7 1   
     3     1    26 1   
     4     1    27 1   
     5     2     3 1   
     6     2    28 1   
     7     2    29 1   
     8     3     4 1   
     9     3     5 1   
    10     3    31 1   
    11     4    32 1   
    12     4    33 1   
    13     5     6 1   
    14     5    34 1   
    15     5    35 1   
    16     6     7 1   
    17     6    36 1   
    18     6    37 1   
    19     7     8 1   
    20     7    30 1   
    21     8     9 1   
    22     8    38 1   
    23     9    10 ar  
    24     9    11 ar  
    25    10    14 ar  
    26    11    12 ar  
    27    11    39 1   
    28    12    13 ar  
    29    13    14 ar  
    30    13    40 1   
    31    14    15 1   
    32    15    16 ar  
    33    15    17 ar  
    34    16    20 ar  
    35    16    41 1   
    36    17    18 ar  
    37    17    42 1   
    38    18    19 ar  
    39    18    43 1   
    40    19    20 ar  
    41    19    44 1   
    42    20    21 1   
    43    21    22 2   
    44    21    45 1   
    45    22    23 1   
    46    22    46 1   
    47    23    24 1   
    48    23    25 1   
@<TRIPOS>SUBSTRUCTURE
     1 XJ1         1 TEMP              0 ****  ****    0 ROOT
