@<TRIPOS>MOLECULE
XJ2
   39    40     1     0     0
SMALL
No Charge or Current Charge


@<TRIPOS>ATOM
      1 C2          14.3580    18.4360    75.9690 c3         1 XJ2       0.169300
      2 C3          15.3030    17.4670    75.1910 c3         1 XJ2       0.154800
      3 C5          16.0020    15.0860    74.8820 c3         1 XJ2       0.143100
      4 C6          14.4290    19.8930    75.4380 c3         1 XJ2       0.118800
      5 C8          12.4540    20.8170    76.6580 c3         1 XJ2       0.208100
      6 C9          11.6220    21.6040    75.6490 ca         1 XJ2      -0.117300
      7 C10         10.9160    20.9320    74.6320 ca         1 XJ2      -0.099000
      8 C11         10.1580    21.6570    73.6980 ca         1 XJ2      -0.114000
      9 C12         10.1020    23.0580    73.7760 ca         1 XJ2      -0.104000
     10 C13         10.8060    23.7340    74.7870 ca         1 XJ2      -0.109000
     11 C14         11.5730    23.0160    75.7260 ca         1 XJ2      -0.066300
     12 C15         12.3350    23.7620    76.8270 c3         1 XJ2      -0.032100
     13 C16         13.8570    23.4400    76.9240 c3         1 XJ2      -0.071400
     14 C17         14.3760    22.2820    76.0340 c3         1 XJ2       0.172800
     15 N4          15.1660    16.0500    75.6220 n7         1 XJ2      -0.841400
     16 N7          13.9230    20.9120    76.4090 n3         1 XJ2      -0.736600
     17 O01         14.6820    18.5060    77.3650 oh         1 XJ2      -0.652000
     18 H1          13.3260    18.0810    75.8500 h1         1 XJ2       0.027700
     19 H2          16.3410    17.8040    75.3210 h1         1 XJ2       0.034200
     20 H3          15.0680    17.5520    74.1210 h1         1 XJ2       0.034200
     21 H4          15.8530    14.0690    75.2690 h1         1 XJ2       0.028700
     22 H5          15.7470    15.0850    73.8130 h1         1 XJ2       0.028700
     23 H6          17.0670    15.3350    74.9810 h1         1 XJ2       0.028700
     24 H7          15.4820    20.1060    75.2070 h1         1 XJ2       0.045200
     25 H8          13.8790    19.9560    74.4890 h1         1 XJ2       0.045200
     26 H10         12.1170    19.7730    76.6690 h1         1 XJ2       0.060200
     27 H11         10.9570    19.8470    74.5640 ha         1 XJ2       0.110000
     28 H12          9.6140    21.1330    72.9150 ha         1 XJ2       0.114000
     29 H13          9.5140    23.6200    73.0540 ha         1 XJ2       0.114000
     30 H14         10.7560    24.8200    74.8360 ha         1 XJ2       0.112000
     31 H15         12.2190    24.8460    76.7030 hc         1 XJ2       0.048200
     32 H16         11.8700    23.5350    77.7940 hc         1 XJ2       0.048200
     33 H17         14.4120    24.3430    76.6430 hc         1 XJ2       0.047700
     34 H18         14.1210    23.2370    77.9690 hc         1 XJ2       0.047700
     35 H19         15.4740    22.3090    76.0730 h1         1 XJ2       0.038700
     36 H20         14.1050    22.4990    74.9910 h1         1 XJ2       0.038700
     37 H21         14.1820    15.7740    75.5130 hn         1 XJ2       0.402000
     38 H24         14.5230    19.4650    77.5540 ho         1 XJ2       0.461000
     39 H9          12.2300    21.2020    77.6620 h1         1 XJ2       0.060200
@<TRIPOS>BOND
     1     1     2 1   
     2     1     4 1   
     3     1    17 1   
     4     1    18 1   
     5     2    15 1   
     6     2    19 1   
     7     2    20 1   
     8     3    15 1   
     9     3    21 1   
    10     3    22 1   
    11     3    23 1   
    12     4    16 1   
    13     4    24 1   
    14     4    25 1   
    15     5     6 1   
    16     5    16 1   
    17     5    26 1   
    18     5    39 1   
    19     6     7 ar  
    20     6    11 ar  
    21     7     8 ar  
    22     7    27 1   
    23     8     9 ar  
    24     8    28 1   
    25     9    10 ar  
    26     9    29 1   
    27    10    11 ar  
    28    10    30 1   
    29    11    12 1   
    30    12    13 1   
    31    12    31 1   
    32    12    32 1   
    33    13    14 1   
    34    13    33 1   
    35    13    34 1   
    36    14    16 1   
    37    14    35 1   
    38    14    36 1   
    39    15    37 1   
    40    17    38 1   
@<TRIPOS>SUBSTRUCTURE
     1 XJ2         1 TEMP              0 ****  ****    0 ROOT
