@<TRIPOS>MOLECULE
XJ3
   67    70     1     0     0
SMALL
bcc


@<TRIPOS>ATOM
      1 C1          15.6900    17.6450   284.8510 c3         1 XJ3       0.146100
      2 C3          14.8110    19.2030   283.2370 c3         1 XJ3       0.151800
      3 C4          14.8730    19.6560   281.7850 c3         1 XJ3       0.163800
      4 C6          14.4350    22.0570   281.8780 c3         1 XJ3       0.210100
      5 C7          13.3280    23.0750   281.8050 ca         1 XJ3      -0.105300
      6 C8          12.1690    22.8750   282.5470 ca         1 XJ3      -0.058000
      7 C9          11.1080    23.7730   282.4930 cp         1 XJ3      -0.156500
      8 C10          9.8810    23.5130   283.2800 cp         1 XJ3       0.766500
      9 C12          7.6900    23.9880   283.6670 ca         1 XJ3       0.723200
     10 C14          6.5870    25.7950   282.4030 c6         1 XJ3       0.240500
     11 C15          7.1120    27.1140   282.9670 c6         1 XJ3      -0.131400
     12 C16          6.9760    28.2140   281.9260 c6         1 XJ3       0.133900
     13 C18          5.1540    27.1690   280.8960 c6         1 XJ3       0.133900
     14 C19          5.1740    26.0000   281.8700 c6         1 XJ3      -0.131400
     15 C20          7.6190    22.9440   284.6310 ca         1 XJ3      -0.377900
     16 C21          6.3070    22.5860   285.2550 c3         1 XJ3      -0.031800
     17 C22          8.8130    22.2940   284.8740 ca         1 XJ3       0.572800
     18 C23          8.9570    21.2330   285.8760 cc         1 XJ3      -0.420100
     19 C24          8.6050    21.2300   287.1890 cd         1 XJ3       0.322000
     20 C25          7.9620    22.2340   288.0650 c3         1 XJ3      -0.139400
     21 C28          9.5930    19.9680   285.6930 cc         1 XJ3       0.382600
     22 C29         10.1950    19.4080   284.4540 c3         1 XJ3      -0.133400
     23 C31         11.2160    24.9000   281.6750 ca         1 XJ3      -0.083000
     24 C32         12.3710    25.1140   280.9420 ca         1 XJ3      -0.150000
     25 C33         13.4210    24.2040   281.0020 ca         1 XJ3      -0.106000
     26 N2          15.7150    18.0970   283.4760 n7         1 XJ3      -0.808200
     27 N05         13.9410    20.7390   281.5260 n7         1 XJ3      -0.822200
     28 N11          8.8140    24.2510   283.0060 nb         1 XJ3      -0.799000
     29 N13          6.6020    24.7200   283.3710 nu         1 XJ3      -0.873900
     30 N27          9.5840    19.2850   286.7990 nd         1 XJ3      -0.374300
     31 N30          9.9400    22.5680   284.1970 nb         1 XJ3      -0.745000
     32 O17          5.6460    28.3550   281.4770 os         1 XJ3      -0.402600
     33 O26          8.9750    20.0720   287.7360 os         1 XJ3      -0.119100
     34 H1          16.3320    16.7720   284.9670 h1         1 XJ3       0.030033
     35 H2          16.0780    18.4270   285.5070 h1         1 XJ3       0.030033
     36 H3          14.6890    17.3770   285.2190 h1         1 XJ3       0.030033
     37 H4          15.1020    20.0240   283.9000 h1         1 XJ3       0.037700
     38 H5          13.7630    18.9650   283.4850 h1         1 XJ3       0.037700
     39 H6          14.5920    18.8160   281.1450 h1         1 XJ3       0.034700
     40 H7          15.9120    19.9100   281.5280 h1         1 XJ3       0.034700
     41 H8          14.8160    22.0210   282.9020 h1         1 XJ3       0.037700
     42 H9          15.2810    22.3810   281.2530 h1         1 XJ3       0.037700
     43 H10         12.0880    21.9950   283.1710 ha         1 XJ3       0.161000
     44 H11          7.2300    25.4960   281.5700 h1         1 XJ3       0.081700
     45 H12          8.1610    27.0150   283.2560 hc         1 XJ3       0.056950
     46 H13          6.5470    27.3780   283.8660 hc         1 XJ3       0.056950
     47 H14          7.6460    27.9990   281.0790 h1         1 XJ3       0.047950
     48 H15          7.2770    29.1770   282.3420 h1         1 XJ3       0.047950
     49 H16          4.1350    27.3740   280.5670 h1         1 XJ3       0.047950
     50 H17          5.7420    26.9060   280.0040 h1         1 XJ3       0.047950
     51 H18          4.4850    26.2000   282.6980 hc         1 XJ3       0.056950
     52 H19          4.8210    25.1000   281.3620 hc         1 XJ3       0.056950
     53 H20          5.5290    22.4890   284.4940 hc         1 XJ3       0.041367
     54 H21          6.3540    21.6360   285.7820 hc         1 XJ3       0.041367
     55 H22          5.9680    23.3410   285.9690 hc         1 XJ3       0.041367
     56 H23          8.5020    22.3350   289.0060 hc         1 XJ3       0.064033
     57 H24          7.9440    23.2040   287.5740 hc         1 XJ3       0.064033
     58 H25          6.9330    21.9550   288.2980 hc         1 XJ3       0.064033
     59 H26         10.4640    18.3630   284.5940 hc         1 XJ3       0.061033
     60 H27          9.4990    19.4800   283.6200 hc         1 XJ3       0.061033
     61 H28         11.0910    19.9620   284.1750 hc         1 XJ3       0.061033
     62 H29         10.3970    25.6050   281.6180 ha         1 XJ3       0.146000
     63 H30         12.4530    25.9910   280.3120 ha         1 XJ3       0.131000
     64 H31         14.3160    24.3740   280.4130 ha         1 XJ3       0.127000
     65 H32         15.4550    17.3260   282.8740 hn         1 XJ3       0.346800
     66 H34         13.6830    20.7390   280.5480 hn         1 XJ3       0.362800
     67 H36          5.7880    24.6220   283.9560 hn         1 XJ3       0.438800
@<TRIPOS>BOND
     1     1    26 1   
     2     1    34 1   
     3     1    35 1   
     4     1    36 1   
     5     2     3 1   
     6     2    26 1   
     7     2    37 1   
     8     2    38 1   
     9     3    27 1   
    10     3    39 1   
    11     3    40 1   
    12     4     5 1   
    13     4    27 1   
    14     4    41 1   
    15     4    42 1   
    16     5     6 ar  
    17     5    25 ar  
    18     6     7 ar  
    19     6    43 1   
    20     7     8 1   
    21     7    23 ar  
    22     8    28 ar  
    23     8    31 ar  
    24     9    15 ar  
    25     9    28 ar  
    26     9    29 1   
    27    10    11 1   
    28    10    14 1   
    29    10    29 1   
    30    10    44 1   
    31    11    12 1   
    32    11    45 1   
    33    11    46 1   
    34    12    32 1   
    35    12    47 1   
    36    12    48 1   
    37    13    14 1   
    38    13    32 1   
    39    13    49 1   
    40    13    50 1   
    41    14    51 1   
    42    14    52 1   
    43    15    16 1   
    44    15    17 ar  
    45    16    53 1   
    46    16    54 1   
    47    16    55 1   
    48    17    18 1   
    49    17    31 ar  
    50    18    19 2   
    51    18    21 1   
    52    19    20 1   
    53    19    33 1   
    54    20    56 1   
    55    20    57 1   
    56    20    58 1   
    57    21    22 1   
    58    21    30 2   
    59    22    59 1   
    60    22    60 1   
    61    22    61 1   
    62    23    24 ar  
    63    23    62 1   
    64    24    25 ar  
    65    24    63 1   
    66    25    64 1   
    67    26    65 1   
    68    27    66 1   
    69    29    67 1   
    70    30    33 1   
@<TRIPOS>SUBSTRUCTURE
     1 XJ3         1 TEMP              0 ****  ****    0 ROOT
