@<TRIPOS>MOLECULE
XJ3
   67    70     1     0     0
SMALL
No Charge or Current Charge


@<TRIPOS>ATOM
      1 C1          16.8690    17.6390   284.7000 c3         1 XJ3       0.146100
      2 C3          15.5340    19.1360   283.2140 c3         1 XJ3       0.151800
      3 C4          15.3270    19.5910   281.7380 c3         1 XJ3       0.163800
      4 C6          14.4310    21.8950   282.1710 c3         1 XJ3       0.210100
      5 C7          13.2420    22.7990   281.8790 ca         1 XJ3      -0.105300
      6 C8          12.0400    22.6350   282.5960 ca         1 XJ3      -0.040000
      7 C9          10.9060    23.4630   282.3570 cp         1 XJ3      -0.156500
      8 C10          9.6230    23.2780   283.1270 cp         1 XJ3       0.240500
      9 C12          7.4360    23.8990   283.4950 ca         1 XJ3       0.394900
     10 C14          6.4490    25.9440   282.3280 c6         1 XJ3       0.240500
     11 C15          7.0940    27.0990   283.1320 c6         1 XJ3      -0.131400
     12 C16          7.0400    28.4090   282.3150 c6         1 XJ3       0.157100
     13 C18          5.0690    27.6840   281.1090 c6         1 XJ3       0.157100
     14 C19          5.0270    26.3390   281.8710 c6         1 XJ3      -0.131400
     15 C20          7.3030    22.9210   284.5010 ca         1 XJ3      -0.247300
     16 C21          5.9580    22.6870   285.2010 c3         1 XJ3      -0.031800
     17 C22          8.4520    22.1360   284.7690 ca         1 XJ3       0.244500
     18 C23          8.5220    21.1540   285.8470 cc         1 XJ3      -0.289500
     19 C24          8.2830    21.4500   287.1540 cd         1 XJ3       0.212300
     20 C25          7.8870    22.7280   287.8420 c3         1 XJ3      -0.139400
     21 C28          9.0730    19.8590   285.8700 cc         1 XJ3       0.317300
     22 C29          9.5680    19.1500   284.6410 c3         1 XJ3      -0.133400
     23 C31         11.0360    24.4690   281.3590 ca         1 XJ3      -0.065000
     24 C32         12.2330    24.6350   280.6430 ca         1 XJ3      -0.132000
     25 C33         13.3330    23.8040   280.9000 ca         1 XJ3      -0.088000
     26 N2          16.5940    18.1050   283.3260 n7         1 XJ3      -0.863400
     27 N05         14.2120    20.5590   281.5840 n7         1 XJ3      -0.877400
     28 N11          8.5820    24.0710   282.8180 nb         1 XJ3      -0.273000
     29 N13          6.3700    24.7300   283.1560 nu         1 XJ3      -0.929100
     30 N27          9.1090    19.3230   287.0770 nd         1 XJ3      -0.374300
     31 N30          9.5930    22.3290   284.0820 nb         1 XJ3      -0.219000
     32 O17          5.6750    28.6970   281.9410 os         1 XJ3      -0.449000
     33 O26          8.5840    20.3590   287.9280 os         1 XJ3      -0.074700
     34 H1          17.6680    16.8860   284.7000 h1         1 XJ3       0.030033
     35 H2          17.1870    18.4730   285.3400 h1         1 XJ3       0.030033
     36 H3          15.9730    17.1850   285.1460 h1         1 XJ3       0.030033
     37 H4          15.7990    20.0110   283.8230 h1         1 XJ3       0.037700
     38 H5          14.5820    18.7420   283.5960 h1         1 XJ3       0.037700
     39 H6          15.1140    18.6990   281.1340 h1         1 XJ3       0.034700
     40 H7          16.2640    20.0230   281.3590 h1         1 XJ3       0.034700
     41 H8          14.5610    21.8270   283.2600 h1         1 XJ3       0.037700
     42 H9          15.3430    22.3510   281.7600 h1         1 XJ3       0.037700
     43 H10         11.9960    21.8460   283.3440 ha         1 XJ3       0.143000
     44 H11          7.0520    25.7560   281.4240 h1         1 XJ3       0.081700
     45 H12          8.1370    26.8600   283.3780 hc         1 XJ3       0.056950
     46 H13          6.5670    27.2410   284.0850 hc         1 XJ3       0.056950
     47 H14          7.6570    28.3230   281.4090 h1         1 XJ3       0.047950
     48 H15          7.4300    29.2440   282.9160 h1         1 XJ3       0.047950
     49 H16          4.0490    27.9990   280.8460 h1         1 XJ3       0.047950
     50 H17          5.6470    27.5810   280.1790 h1         1 XJ3       0.047950
     51 H18          4.3570    26.4350   282.7360 hc         1 XJ3       0.056950
     52 H19          4.6050    25.5590   281.2230 hc         1 XJ3       0.056950
     53 H20          5.1370    22.6420   284.4750 hc         1 XJ3       0.041367
     54 H21          5.9280    21.7400   285.7510 hc         1 XJ3       0.041367
     55 H22          5.7340    23.4950   285.9070 hc         1 XJ3       0.041367
     56 H23          8.4470    22.8570   288.7760 hc         1 XJ3       0.064033
     57 H24          8.0900    23.6030   287.2130 hc         1 XJ3       0.064033
     58 H25          6.8200    22.7240   288.0910 hc         1 XJ3       0.064033
     59 H26          9.6220    18.0680   284.8040 hc         1 XJ3       0.061033
     60 H27          8.9000    19.3300   283.7910 hc         1 XJ3       0.061033
     61 H28         10.5700    19.5030   284.3700 hc         1 XJ3       0.061033
     62 H29         10.2050    25.1330   281.1320 ha         1 XJ3       0.128000
     63 H30         12.3070    25.4120   279.8850 ha         1 XJ3       0.113000
     64 H31         14.2550    23.9410   280.3390 ha         1 XJ3       0.109000
     65 H32         16.3100    17.2910   282.7650 hn         1 XJ3       0.402000
     66 H34         14.0530    20.6980   280.5780 hn         1 XJ3       0.418000
     67 H36          5.5200    24.5780   283.6950 hn         1 XJ3       0.494000
@<TRIPOS>BOND
     1     1    26 1   
     2     1    34 1   
     3     1    35 1   
     4     1    36 1   
     5     2     3 1   
     6     2    26 1   
     7     2    37 1   
     8     2    38 1   
     9     3    27 1   
    10     3    39 1   
    11     3    40 1   
    12     4     5 1   
    13     4    27 1   
    14     4    41 1   
    15     4    42 1   
    16     5     6 ar  
    17     5    25 ar  
    18     6     7 ar  
    19     6    43 1   
    20     7     8 1   
    21     7    23 ar  
    22     8    28 ar  
    23     8    31 ar  
    24     9    15 ar  
    25     9    28 ar  
    26     9    29 1   
    27    10    11 1   
    28    10    14 1   
    29    10    29 1   
    30    10    44 1   
    31    11    12 1   
    32    11    45 1   
    33    11    46 1   
    34    12    32 1   
    35    12    47 1   
    36    12    48 1   
    37    13    14 1   
    38    13    32 1   
    39    13    49 1   
    40    13    50 1   
    41    14    51 1   
    42    14    52 1   
    43    15    16 1   
    44    15    17 ar  
    45    16    53 1   
    46    16    54 1   
    47    16    55 1   
    48    17    18 1   
    49    17    31 ar  
    50    18    19 2   
    51    18    21 1   
    52    19    20 1   
    53    19    33 1   
    54    20    56 1   
    55    20    57 1   
    56    20    58 1   
    57    21    22 1   
    58    21    30 2   
    59    22    59 1   
    60    22    60 1   
    61    22    61 1   
    62    23    24 ar  
    63    23    62 1   
    64    24    25 ar  
    65    24    63 1   
    66    25    64 1   
    67    26    65 1   
    68    27    66 1   
    69    29    67 1   
    70    30    33 1   
@<TRIPOS>SUBSTRUCTURE
     1 XJ3         1 TEMP              0 ****  ****    0 ROOT
