@<TRIPOS>MOLECULE
XJ4
   63    66     1     0     0
SMALL
No Charge or Current Charge


@<TRIPOS>ATOM
      1 C1          16.7870    17.9860   286.1210 c3         1 XJ4       0.145100
      2 C3          15.4950    19.6410   284.7700 c3         1 XJ4       0.151800
      3 C4          15.2850    20.2090   283.3350 c3         1 XJ4       0.163800
      4 C6          14.4960    22.5120   283.9480 c3         1 XJ4       0.210100
      5 C7          13.3430    23.4840   283.7430 ca         1 XJ4      -0.106300
      6 C8          12.1470    23.3180   284.4670 ca         1 XJ4      -0.040000
      7 C9          11.0460    24.2080   284.3080 cp         1 XJ4      -0.158500
      8 C10          9.7670    24.0210   285.0860 cp         1 XJ4       0.240500
      9 C12          7.6230    24.7230   285.5520 ca         1 XJ4       0.394900
     10 C14          6.4880    26.8280   284.5940 ca         1 XJ4       0.304000
     11 C15          7.5830    27.7020   284.4420 ca         1 XJ4      -0.139500
     12 C16          7.4360    28.9160   283.7460 ca         1 XJ4      -0.088000
     13 C17          6.1890    29.2680   283.2050 ca         1 XJ4      -0.131000
     14 C18          5.0880    28.4110   283.3670 ca         1 XJ4      -0.088000
     15 C19          5.2390    27.1990   284.0640 ca         1 XJ4      -0.139500
     16 C20          7.4500    23.6580   286.4600 ca         1 XJ4      -0.242300
     17 C21          6.1010    23.4230   287.1550 c3         1 XJ4      -0.034800
     18 C22          8.5600    22.7960   286.6370 ca         1 XJ4       0.244500
     19 C23          8.5930    21.7160   287.6200 cc         1 XJ4      -0.293500
     20 C24          8.3850    21.9010   288.9520 cd         1 XJ4       0.214300
     21 C25          8.0610    23.1290   289.7600 c3         1 XJ4      -0.141400
     22 C28          9.0780    20.3980   287.5150 cc         1 XJ4       0.318300
     23 C29          9.5230    19.7830   286.2190 c3         1 XJ4      -0.134400
     24 C31         11.2040    25.2780   283.3830 ca         1 XJ4      -0.063000
     25 C32         12.3970    25.4450   282.6590 ca         1 XJ4      -0.131000
     26 C33         13.4640    24.5520   282.8370 ca         1 XJ4      -0.087000
     27 N2          16.5120    18.5610   284.7890 n7         1 XJ4      -0.862400
     28 N5          14.2110    21.2320   283.2710 n7         1 XJ4      -0.876400
     29 N11          8.7650    24.8910   284.8690 nb         1 XJ4      -0.253000
     30 N13          6.5860    25.6180   285.2910 nu         1 XJ4      -0.942900
     31 N27          9.1020    19.7520   288.6670 nd         1 XJ4      -0.373300
     32 N30          9.7020    22.9940   285.9520 nb         1 XJ4      -0.214000
     33 O26          8.6390    20.7310   289.6180 os         1 XJ4      -0.073700
     34 H1          17.5530    17.2020   286.0520 h1         1 XJ4       0.030367
     35 H2          17.1520    18.7580   286.8120 h1         1 XJ4       0.030367
     36 H3          15.8810    17.5400   286.5510 h1         1 XJ4       0.030367
     37 H4          15.8070    20.4580   285.4350 h1         1 XJ4       0.037700
     38 H5          14.5330    19.2610   285.1420 h1         1 XJ4       0.037700
     39 H6          15.0240    19.3720   282.6730 h1         1 XJ4       0.034700
     40 H7          16.2330    20.6270   282.9700 h1         1 XJ4       0.034700
     41 H8          14.6410    22.3610   285.0260 h1         1 XJ4       0.038200
     42 H9          15.4210    22.9570   283.5530 h1         1 XJ4       0.038200
     43 H10         12.0800    22.4800   285.1570 ha         1 XJ4       0.143000
     44 H11          8.5470    27.4600   284.8760 ha         1 XJ4       0.123500
     45 H12          8.2870    29.5840   283.6330 ha         1 XJ4       0.113000
     46 H13          6.0740    30.2070   282.6670 ha         1 XJ4       0.115000
     47 H14          4.1200    28.6840   282.9540 ha         1 XJ4       0.113000
     48 H15          4.3820    26.5410   284.1820 ha         1 XJ4       0.123500
     49 H16          5.2720    23.4640   286.4380 hc         1 XJ4       0.043700
     50 H17          6.0380    22.4390   287.6320 hc         1 XJ4       0.043700
     51 H18          5.9150    24.1820   287.9240 hc         1 XJ4       0.043700
     52 H19          8.6350    23.1420   290.6930 hc         1 XJ4       0.065033
     53 H20          8.3030    24.0460   289.2110 hc         1 XJ4       0.065033
     54 H21          6.9980    23.1560   290.0220 hc         1 XJ4       0.065033
     55 H22          9.5250    18.6880   286.2810 hc         1 XJ4       0.062033
     56 H23          8.8540    20.0710   285.4000 hc         1 XJ4       0.062033
     57 H24         10.5370    20.1100   285.9640 hc         1 XJ4       0.062033
     58 H25         10.3990    25.9900   283.2180 ha         1 XJ4       0.130000
     59 H26         12.4920    26.2710   281.9580 ha         1 XJ4       0.114000
     60 H27         14.3820    24.6910   282.2710 ha         1 XJ4       0.109000
     61 H28         16.1840    17.8020   284.1770 hn         1 XJ4       0.402000
     62 H30         14.0420    21.4490   282.2810 hn         1 XJ4       0.418000
     63 H32          5.6900    25.2780   285.6330 hn         1 XJ4       0.499000
@<TRIPOS>BOND
     1     1    27 1   
     2     1    34 1   
     3     1    35 1   
     4     1    36 1   
     5     2     3 1   
     6     2    27 1   
     7     2    37 1   
     8     2    38 1   
     9     3    28 1   
    10     3    39 1   
    11     3    40 1   
    12     4     5 1   
    13     4    28 1   
    14     4    41 1   
    15     4    42 1   
    16     5     6 ar  
    17     5    26 ar  
    18     6     7 ar  
    19     6    43 1   
    20     7     8 1   
    21     7    24 ar  
    22     8    29 ar  
    23     8    32 ar  
    24     9    16 ar  
    25     9    29 ar  
    26     9    30 1   
    27    10    11 ar  
    28    10    15 ar  
    29    10    30 1   
    30    11    12 ar  
    31    11    44 1   
    32    12    13 ar  
    33    12    45 1   
    34    13    14 ar  
    35    13    46 1   
    36    14    15 ar  
    37    14    47 1   
    38    15    48 1   
    39    16    17 1   
    40    16    18 ar  
    41    17    49 1   
    42    17    50 1   
    43    17    51 1   
    44    18    19 1   
    45    18    32 ar  
    46    19    20 2   
    47    19    22 1   
    48    20    21 1   
    49    20    33 1   
    50    21    52 1   
    51    21    53 1   
    52    21    54 1   
    53    22    23 1   
    54    22    31 2   
    55    23    55 1   
    56    23    56 1   
    57    23    57 1   
    58    24    25 ar  
    59    24    58 1   
    60    25    26 ar  
    61    25    59 1   
    62    26    60 1   
    63    27    61 1   
    64    28    62 1   
    65    30    63 1   
    66    31    33 1   
@<TRIPOS>SUBSTRUCTURE
     1 XJ4         1 TEMP              0 ****  ****    0 ROOT
