@<TRIPOS>MOLECULE
XJ4
   63    66     1     0     0
SMALL
bcc


@<TRIPOS>ATOM
      1 C1          15.6930    18.1270   286.4660 c3         1 XJ4       0.145100
      2 C3          14.8100    19.7380   284.9060 c3         1 XJ4       0.151800
      3 C4          14.8540    20.2260   283.4640 c3         1 XJ4       0.163800
      4 C6          14.4920    22.6350   283.6160 c3         1 XJ4       0.210100
      5 C7          13.4160    23.6890   283.5890 ca         1 XJ4      -0.106300
      6 C8          12.2640    23.5070   284.3460 ca         1 XJ4      -0.058000
      7 C9          11.2330    24.4410   284.3350 cp         1 XJ4      -0.158500
      8 C10         10.0110    24.1940   285.1340 cp         1 XJ4       0.766500
      9 C12          7.8610    24.7490   285.6060 ca         1 XJ4       0.723200
     10 C14          6.6430    26.6870   284.6110 ca         1 XJ4       0.165600
     11 C15          7.6860    27.5560   284.2880 ca         1 XJ4      -0.157500
     12 C16          7.4350    28.6720   283.5020 ca         1 XJ4      -0.106000
     13 C17          6.1580    28.9510   283.0360 ca         1 XJ4      -0.149000
     14 C18          5.1180    28.0950   283.3710 ca         1 XJ4      -0.106000
     15 C19          5.3560    26.9720   284.1470 ca         1 XJ4      -0.157500
     16 C20          7.7430    23.6350   286.4790 ca         1 XJ4      -0.372900
     17 C21          6.4320    23.2870   287.1100 c3         1 XJ4      -0.034800
     18 C22          8.9110    22.9120   286.6540 ca         1 XJ4       0.572800
     19 C23          9.0270    21.7810   287.5780 cc         1 XJ4      -0.424100
     20 C24          8.7010    21.7010   288.8960 cd         1 XJ4       0.324000
     21 C25          8.1110    22.6640   289.8530 c3         1 XJ4      -0.141400
     22 C28          9.6180    20.5110   287.2990 cc         1 XJ4       0.383600
     23 C29         10.1780    20.0160   286.0140 c3         1 XJ4      -0.134400
     24 C31         11.3640    25.5860   283.5460 ca         1 XJ4      -0.081000
     25 C32         12.5120    25.7820   282.7980 ca         1 XJ4      -0.149000
     26 C33         13.5330    24.8370   282.8150 ca         1 XJ4      -0.105000
     27 N2          15.7010    18.6130   285.1020 n7         1 XJ4      -0.807200
     28 N5          13.9480    21.3400   283.2520 n7         1 XJ4      -0.821200
     29 N11          8.9780    25.0050   284.9430 nb         1 XJ4      -0.779000
     30 N13          6.7870    25.5610   285.4300 nu         1 XJ4      -0.749300
     31 N27          9.6070    19.7570   288.3560 nd         1 XJ4      -0.373300
     32 N30         10.0360    23.1830   285.9780 nb         1 XJ4      -0.740000
     33 O26          9.0420    20.4980   289.3570 os         1 XJ4      -0.118100
     34 H1          16.3250    17.2430   286.5490 h1         1 XJ4       0.030367
     35 H2          16.1030    18.8880   287.1330 h1         1 XJ4       0.030367
     36 H3          14.6950    17.8640   286.8450 h1         1 XJ4       0.030367
     37 H4          15.1260    20.5400   285.5810 h1         1 XJ4       0.037700
     38 H5          13.7640    19.5120   285.1680 h1         1 XJ4       0.037700
     39 H6          14.5370    19.4100   282.8100 h1         1 XJ4       0.034700
     40 H7          15.8950    20.4580   283.1920 h1         1 XJ4       0.034700
     41 H8          14.8940    22.5680   284.6310 h1         1 XJ4       0.038200
     42 H9          15.3320    22.9450   282.9770 h1         1 XJ4       0.038200
     43 H10         12.1650    22.6140   284.9480 ha         1 XJ4       0.161000
     44 H11          8.6850    27.3740   284.6510 ha         1 XJ4       0.141500
     45 H12          8.2560    29.3360   283.2600 ha         1 XJ4       0.131000
     46 H13          5.9750    29.8240   282.4250 ha         1 XJ4       0.133000
     47 H14          4.1120    28.2940   283.0240 ha         1 XJ4       0.131000
     48 H15          4.5380    26.3060   284.3950 ha         1 XJ4       0.141500
     49 H16          5.6320    23.2480   286.3650 hc         1 XJ4       0.043700
     50 H17          6.4610    22.3070   287.5810 hc         1 XJ4       0.043700
     51 H18          6.1340    24.0100   287.8720 hc         1 XJ4       0.043700
     52 H19          8.6600    22.6630   290.7950 hc         1 XJ4       0.065033
     53 H20          8.1390    23.6700   289.4410 hc         1 XJ4       0.065033
     54 H21          7.0710    22.4180   290.0720 hc         1 XJ4       0.065033
     55 H22         10.4110    18.9550   286.0780 hc         1 XJ4       0.062033
     56 H23          9.4690    20.1690   285.2000 hc         1 XJ4       0.062033
     57 H24         11.0880    20.5550   285.7540 hc         1 XJ4       0.062033
     58 H25         10.5680    26.3170   283.5200 ha         1 XJ4       0.148000
     59 H26         12.6110    26.6710   282.1890 ha         1 XJ4       0.132000
     60 H27         14.4210    24.9940   282.2140 ha         1 XJ4       0.127000
     61 H28         15.4180    17.8610   284.4860 hn         1 XJ4       0.346800
     62 H30         13.6650    21.3690   282.2810 hn         1 XJ4       0.362800
     63 H32          5.9330    25.2620   285.8720 hn         1 XJ4       0.443800
@<TRIPOS>BOND
     1     1    27 1   
     2     1    34 1   
     3     1    35 1   
     4     1    36 1   
     5     2     3 1   
     6     2    27 1   
     7     2    37 1   
     8     2    38 1   
     9     3    28 1   
    10     3    39 1   
    11     3    40 1   
    12     4     5 1   
    13     4    28 1   
    14     4    41 1   
    15     4    42 1   
    16     5     6 ar  
    17     5    26 ar  
    18     6     7 ar  
    19     6    43 1   
    20     7     8 1   
    21     7    24 ar  
    22     8    29 ar  
    23     8    32 ar  
    24     9    16 ar  
    25     9    29 ar  
    26     9    30 1   
    27    10    11 ar  
    28    10    15 ar  
    29    10    30 1   
    30    11    12 ar  
    31    11    44 1   
    32    12    13 ar  
    33    12    45 1   
    34    13    14 ar  
    35    13    46 1   
    36    14    15 ar  
    37    14    47 1   
    38    15    48 1   
    39    16    17 1   
    40    16    18 ar  
    41    17    49 1   
    42    17    50 1   
    43    17    51 1   
    44    18    19 1   
    45    18    32 ar  
    46    19    20 2   
    47    19    22 1   
    48    20    21 1   
    49    20    33 1   
    50    21    52 1   
    51    21    53 1   
    52    21    54 1   
    53    22    23 1   
    54    22    31 2   
    55    23    55 1   
    56    23    56 1   
    57    23    57 1   
    58    24    25 ar  
    59    24    58 1   
    60    25    26 ar  
    61    25    59 1   
    62    26    60 1   
    63    27    61 1   
    64    28    62 1   
    65    30    63 1   
    66    31    33 1   
@<TRIPOS>SUBSTRUCTURE
     1 XJ4         1 TEMP              0 ****  ****    0 ROOT
