@<TRIPOS>MOLECULE
XJ5
   64    68     1     0     0
SMALL
No Charge or Current Charge


@<TRIPOS>ATOM
      1 C1         -43.6990    15.7200    -7.8230 c          1 XJ5       0.609100
      2 C10        -45.1350    13.7370    -8.6700 c6         1 XJ5      -0.051400
      3 C11        -45.6670    12.2900    -8.3980 c6         1 XJ5       0.000300
      4 C12        -44.4380    11.3440    -8.2030 c6         1 XJ5      -0.063400
      5 C13        -43.5440    11.8340    -7.0330 c6         1 XJ5      -0.059700
      6 C14        -43.0320    13.2690    -7.3330 c6         1 XJ5      -0.063400
      7 C15        -46.5240    11.8060    -9.6060 ca         1 XJ5      -0.064300
      8 C16        -45.9310    11.7180   -10.8880 ca         1 XJ5      -0.107500
      9 C17        -46.6700    11.2870   -12.0030 ca         1 XJ5      -0.110500
     10 C18        -48.0190    10.9360   -11.8600 ca         1 XJ5      -0.112000
     11 C19        -48.6270    11.0160   -10.5990 ca         1 XJ5      -0.110500
     12 C2         -42.4900    16.2660    -5.6620 c6         1 XJ5       0.108000
     13 C20        -47.8910    11.4470    -9.4820 ca         1 XJ5      -0.107500
     14 C21        -46.4630    12.3230    -7.0470 c6         1 XJ5      -0.059400
     15 C22        -45.5810    12.8000    -5.8520 c6         1 XJ5      -0.050000
     16 C23        -44.3630    11.8390    -5.7160 c6         1 XJ5      -0.064400
     17 C24        -46.4100    12.8040    -4.5360 c3         1 XJ5      -0.082100
     18 C3         -41.2640    17.0020    -5.0710 c6         1 XJ5      -0.091400
     19 C32        -45.0550    14.2350    -6.1640 c6         1 XJ5      -0.059400
     20 C4         -40.0740    16.8280    -6.0260 c6         1 XJ5       0.173500
     21 C5         -40.3400    17.5720    -7.3800 c6         1 XJ5      -0.064000
     22 C6         -39.4170    16.9780    -8.4910 c3         1 XJ5      -0.077600
     23 C7         -40.0270    19.1060    -7.3020 c3         1 XJ5      -0.077600
     24 C8         -41.8440    17.4060    -7.7980 c6         1 XJ5       0.093000
     25 C9         -44.2300    14.2720    -7.5000 c6         1 XJ5      -0.110000
     26 N1         -42.5690    16.2660    -7.1580 n          1 XJ5      -0.414800
     27 O1         -44.2060    16.3610    -8.7380 o          1 XJ5      -0.617100
     28 H1         -44.5640    13.7640    -9.6070 hc         1 XJ5       0.060700
     29 H2         -45.9920    14.4090    -8.8190 hc         1 XJ5       0.060700
     30 H3         -44.7800    10.3180    -8.0110 hc         1 XJ5       0.045700
     31 H4         -43.8330    11.2990    -9.1180 hc         1 XJ5       0.045700
     32 H5         -42.6860    11.1560    -6.9240 hc         1 XJ5       0.051700
     33 H6         -42.4270    13.2590    -8.2510 hc         1 XJ5       0.044200
     34 H7         -42.3460    13.5690    -6.5350 hc         1 XJ5       0.044200
     35 H8         -44.8880    11.9840   -11.0280 ha         1 XJ5       0.111000
     36 H9         -46.1930    11.2270   -12.9790 ha         1 XJ5       0.110500
     37 H10        -48.5910    10.6020   -12.7230 ha         1 XJ5       0.112000
     38 H11        -49.6750    10.7450   -10.4850 ha         1 XJ5       0.110500
     39 H12        -43.4090    16.7000    -5.2450 h1         1 XJ5       0.045200
     40 H13        -42.4280    15.2330    -5.3050 h1         1 XJ5       0.045200
     41 H14        -48.4070    11.4930    -8.5280 ha         1 XJ5       0.111000
     42 H15        -47.3280    12.9930    -7.1440 hc         1 XJ5       0.044700
     43 H16        -46.8620    11.3230    -6.8240 hc         1 XJ5       0.044700
     44 H17        -44.7030    10.8200    -5.4830 hc         1 XJ5       0.040700
     45 H18        -43.7220    12.1500    -4.8790 hc         1 XJ5       0.040700
     46 H19        -45.8060    13.1370    -3.6840 hc         1 XJ5       0.035033
     47 H20        -47.2740    13.4770    -4.6110 hc         1 XJ5       0.035033
     48 H21        -46.7910    11.8030    -4.3000 hc         1 XJ5       0.035033
     49 H22        -41.0380    16.5960    -4.0760 hc         1 XJ5       0.054700
     50 H23        -41.4940    18.0660    -4.9320 hc         1 XJ5       0.054700
     51 H24        -44.4650    14.5800    -5.3100 hc         1 XJ5       0.044700
     52 H25        -45.9010    14.9330    -6.2420 hc         1 XJ5       0.044700
     53 H26        -39.9760    15.7520    -6.2370 h1         1 XJ5       0.019700
     54 H27        -39.6110    15.9080    -8.6370 hc         1 XJ5       0.037033
     55 H28        -39.5790    17.4730    -9.4570 hc         1 XJ5       0.037033
     56 H29        -38.3550    17.0900    -8.2420 hc         1 XJ5       0.037033
     57 H30        -40.5970    19.5970    -6.5050 hc         1 XJ5       0.037033
     58 H31        -38.9640    19.3020    -7.1150 hc         1 XJ5       0.037033
     59 H32        -40.2830    19.6100    -8.2420 hc         1 XJ5       0.037033
     60 H33        -42.3940    18.3210    -7.5330 h1         1 XJ5       0.063700
     61 H34        -41.9050    17.3240    -8.8930 h1         1 XJ5       0.063700
     62 N2         -38.8040    17.2230    -5.3810 n8         1 XJ5      -0.999200
     63 H35        -38.6090    16.5710    -4.6130 hn         1 XJ5       0.395000
     64 H36        -38.0390    17.0530    -6.0420 hn         1 XJ5       0.395000
@<TRIPOS>BOND
     1     1    25 1   
     2     1    26 1   
     3     1    27 2   
     4     2     3 1   
     5     2    25 1   
     6     2    28 1   
     7     2    29 1   
     8     3     4 1   
     9     3     7 1   
    10     3    14 1   
    11     4     5 1   
    12     4    30 1   
    13     4    31 1   
    14     5     6 1   
    15     5    16 1   
    16     5    32 1   
    17     6    25 1   
    18     6    33 1   
    19     6    34 1   
    20     7     8 ar  
    21     7    13 ar  
    22     8     9 ar  
    23     8    35 1   
    24     9    10 ar  
    25     9    36 1   
    26    10    11 ar  
    27    10    37 1   
    28    11    13 ar  
    29    11    38 1   
    30    12    18 1   
    31    12    26 1   
    32    12    39 1   
    33    12    40 1   
    34    13    41 1   
    35    14    15 1   
    36    14    42 1   
    37    14    43 1   
    38    15    16 1   
    39    15    17 1   
    40    15    19 1   
    41    16    44 1   
    42    16    45 1   
    43    17    46 1   
    44    17    47 1   
    45    17    48 1   
    46    18    20 1   
    47    18    49 1   
    48    18    50 1   
    49    19    25 1   
    50    19    51 1   
    51    19    52 1   
    52    20    21 1   
    53    20    53 1   
    54    20    62 1   
    55    21    22 1   
    56    21    23 1   
    57    21    24 1   
    58    22    54 1   
    59    22    55 1   
    60    22    56 1   
    61    23    57 1   
    62    23    58 1   
    63    23    59 1   
    64    24    26 1   
    65    24    60 1   
    66    24    61 1   
    67    62    63 1   
    68    62    64 1   
@<TRIPOS>SUBSTRUCTURE
     1 XJ5         1 TEMP              0 ****  ****    0 ROOT
