@<TRIPOS>MOLECULE
XJ5
   64    68     1     0     0
SMALL
abcg2


@<TRIPOS>ATOM
      1 C1         -43.4390    15.5820    -7.8370 c          1 XJ5       0.609100
      2 C10        -44.9090    13.7200    -8.6170 c6         1 XJ5      -0.051400
      3 C11        -45.5420    12.3380    -8.3360 c6         1 XJ5       0.000300
      4 C12        -44.4100    11.3270    -8.0430 c6         1 XJ5      -0.063400
      5 C13        -43.5650    11.8130    -6.8650 c6         1 XJ5      -0.059700
      6 C14        -42.9380    13.1710    -7.2050 c6         1 XJ5      -0.063400
      7 C15        -46.3340    11.8920    -9.5610 ca         1 XJ5      -0.064300
      8 C16        -45.6850    11.7430   -10.7930 ca         1 XJ5      -0.107500
      9 C17        -46.3720    11.3430   -11.9320 ca         1 XJ5      -0.110500
     10 C18        -47.7380    11.0760   -11.8700 ca         1 XJ5      -0.112000
     11 C19        -48.3980    11.2160   -10.6560 ca         1 XJ5      -0.110500
     12 C2         -42.4700    16.0550    -5.5260 c6         1 XJ5       0.108000
     13 C20        -47.7030    11.6190    -9.5170 ca         1 XJ5      -0.107500
     14 C21        -46.4110    12.4540    -7.0750 c6         1 XJ5      -0.059400
     15 C22        -45.5900    12.9400    -5.8750 c6         1 XJ5      -0.050000
     16 C23        -44.4440    11.9470    -5.6180 c6         1 XJ5      -0.064400
     17 C24        -46.4810    13.0580    -4.6410 c3         1 XJ5      -0.082100
     18 C3         -41.1230    16.6650    -5.1140 c6         1 XJ5      -0.091400
     19 C32        -44.9800    14.3120    -6.2060 c6         1 XJ5      -0.059400
     20 C4         -40.1410    16.6240    -6.2790 c6         1 XJ5       0.173500
     21 C5         -40.6300    17.5610    -7.4240 c6         1 XJ5      -0.064000
     22 C6         -40.1710    16.9920    -8.7710 c3         1 XJ5      -0.077600
     23 C7         -40.1250    18.9990    -7.2700 c3         1 XJ5      -0.077600
     24 C8         -42.1750    17.6100    -7.3710 c6         1 XJ5       0.093000
     25 C9         -44.0520    14.2210    -7.4350 c6         1 XJ5      -0.110000
     26 N1         -42.7470    16.3360    -6.9420 n          1 XJ5      -0.414800
     27 O1         -43.5740    15.9770    -9.0020 o          1 XJ5      -0.617100
     28 H1         -44.2870    13.6620    -9.5080 hc         1 XJ5       0.060700
     29 H2         -45.7010    14.4410    -8.8270 hc         1 XJ5       0.060700
     30 H3         -44.8490    10.3500    -7.8220 hc         1 XJ5       0.045700
     31 H4         -43.7790    11.2100    -8.9260 hc         1 XJ5       0.045700
     32 H5         -42.7640    11.0940    -6.6750 hc         1 XJ5       0.051700
     33 H6         -42.3370    13.0900    -8.1150 hc         1 XJ5       0.044200
     34 H7         -42.2620    13.4660    -6.4040 hc         1 XJ5       0.044200
     35 H8         -44.6240    11.9440   -10.8700 ha         1 XJ5       0.111000
     36 H9         -45.8400    11.2380   -12.8700 ha         1 XJ5       0.110500
     37 H10        -48.2770    10.7640   -12.7560 ha         1 XJ5       0.112000
     38 H11        -49.4600    11.0130   -10.5880 ha         1 XJ5       0.110500
     39 H12        -43.2700    16.4620    -4.9020 h1         1 XJ5       0.045200
     40 H13        -42.4340    14.9860    -5.3650 h1         1 XJ5       0.045200
     41 H14        -48.2470    11.7180    -8.5890 ha         1 XJ5       0.111000
     42 H15        -47.2320    13.1560    -7.2480 hc         1 XJ5       0.044700
     43 H16        -46.8580    11.4840    -6.8370 hc         1 XJ5       0.044700
     44 H17        -44.8620    10.9710    -5.3510 hc         1 XJ5       0.040700
     45 H18        -43.8450    12.2880    -4.7680 hc         1 XJ5       0.040700
     46 H19        -45.9070    13.4090    -3.7800 hc         1 XJ5       0.035033
     47 H20        -47.2970    13.7640    -4.8160 hc         1 XJ5       0.035033
     48 H21        -46.9190    12.0890    -4.3860 hc         1 XJ5       0.035033
     49 H22        -40.7300    16.0960    -4.2690 hc         1 XJ5       0.054700
     50 H23        -41.2440    17.6960    -4.7740 hc         1 XJ5       0.054700
     51 H24        -44.4560    14.6690    -5.3240 hc         1 XJ5       0.044700
     52 H25        -45.7810    15.0280    -6.4160 hc         1 XJ5       0.044700
     53 H26        -40.1690    15.6020    -6.6840 h1         1 XJ5       0.019700
     54 H27        -40.6150    16.0110    -8.9510 hc         1 XJ5       0.037033
     55 H28        -40.4620    17.6530    -9.5910 hc         1 XJ5       0.037033
     56 H29        -39.0840    16.8820    -8.7990 hc         1 XJ5       0.037033
     57 H30        -40.3530    19.3960    -6.2790 hc         1 XJ5       0.037033
     58 H31        -39.0480    19.0660    -7.4230 hc         1 XJ5       0.037033
     59 H32        -40.6110    19.6380    -8.0110 hc         1 XJ5       0.037033
     60 H33        -42.4920    18.3720    -6.6540 h1         1 XJ5       0.063700
     61 H34        -42.5810    17.8710    -8.3420 h1         1 XJ5       0.063700
     62 N2         -38.7910    16.9650    -5.8140 n8         1 XJ5      -0.999200
     63 H35        -38.4750    16.2440    -5.1730 hn         1 XJ5       0.395000
     64 H36        -38.1390    16.9460    -6.5920 hn         1 XJ5       0.395000
@<TRIPOS>BOND
     1     1    25 1   
     2     1    26 1   
     3     1    27 2   
     4     2     3 1   
     5     2    25 1   
     6     2    28 1   
     7     2    29 1   
     8     3     4 1   
     9     3     7 1   
    10     3    14 1   
    11     4     5 1   
    12     4    30 1   
    13     4    31 1   
    14     5     6 1   
    15     5    16 1   
    16     5    32 1   
    17     6    25 1   
    18     6    33 1   
    19     6    34 1   
    20     7     8 ar  
    21     7    13 ar  
    22     8     9 ar  
    23     8    35 1   
    24     9    10 ar  
    25     9    36 1   
    26    10    11 ar  
    27    10    37 1   
    28    11    13 ar  
    29    11    38 1   
    30    12    18 1   
    31    12    26 1   
    32    12    39 1   
    33    12    40 1   
    34    13    41 1   
    35    14    15 1   
    36    14    42 1   
    37    14    43 1   
    38    15    16 1   
    39    15    17 1   
    40    15    19 1   
    41    16    44 1   
    42    16    45 1   
    43    17    46 1   
    44    17    47 1   
    45    17    48 1   
    46    18    20 1   
    47    18    49 1   
    48    18    50 1   
    49    19    25 1   
    50    19    51 1   
    51    19    52 1   
    52    20    21 1   
    53    20    53 1   
    54    20    62 1   
    55    21    22 1   
    56    21    23 1   
    57    21    24 1   
    58    22    54 1   
    59    22    55 1   
    60    22    56 1   
    61    23    57 1   
    62    23    58 1   
    63    23    59 1   
    64    24    26 1   
    65    24    60 1   
    66    24    61 1   
    67    62    63 1   
    68    62    64 1   
@<TRIPOS>SUBSTRUCTURE
     1 XJ5         1 TEMP              0 ****  ****    0 ROOT
