@<TRIPOS>MOLECULE
XJ8
   63    67     1     0     0
SMALL
abcg2


@<TRIPOS>ATOM
      1 C25          1.7790     0.0510     0.7350 c          1 XJ8       0.629700
      2 O26          1.7030     0.6210     1.8130 o          1 XJ8      -0.600100
      3 C27          3.1030    -0.2680     0.1250 ca         1 XJ8      -0.199600
      4 C28          3.2930    -0.4080    -1.2570 ca         1 XJ8      -0.022000
      5 C29          4.5370    -0.6700    -1.7810 ca         1 XJ8      -0.188000
      6 C30          5.6370    -0.8130    -0.9290 ca         1 XJ8       0.137600
      7 C31          5.4630    -0.6730     0.4570 ca         1 XJ8      -0.159800
      8 C32          4.1950    -0.3880     0.9640 ca         1 XJ8       0.030000
      9 C33          6.6310    -0.8340     1.2910 cc         1 XJ8       0.246900
     10 C34          7.8420    -1.1060     0.7420 cd         1 XJ8      -0.437200
     11 C35          8.0200    -1.2420    -0.6820 c          1 XJ8       0.588200
     12 O36          9.0900    -1.4800    -1.2280 o          1 XJ8      -0.550000
     13 N37          6.8760    -1.0820    -1.4310 ns         1 XJ8      -0.380100
     14 O38          6.4190    -0.6990     2.5960 oh         1 XJ8      -0.517100
     15 N24          0.7010    -0.3440     0.0300 ns         1 XJ8      -0.494900
     16 C21         -0.6480    -0.0180     0.4010 c3         1 XJ8       0.032700
     17 C22         -1.5180    -1.2660     0.2980 c          1 XJ8       0.589100
     18 O23         -1.3260    -2.0950    -0.5800 o          1 XJ8      -0.615100
     19 C20         -1.2440     1.0660    -0.5240 c3         1 XJ8      -0.044100
     20 C17         -0.3950     2.3030    -0.5430 ca         1 XJ8      -0.083300
     21 C16          0.5830     2.4750    -1.5180 ca         1 XJ8      -0.100000
     22 C18         -0.5370     3.2800     0.4390 ca         1 XJ8      -0.100000
     23 C15          1.4050     3.5940    -1.5130 ca         1 XJ8      -0.105500
     24 C19          0.2780     4.4020     0.4460 ca         1 XJ8      -0.105500
     25 C14          1.2550     4.5620    -0.5290 ca         1 XJ8      -0.103000
     26 C1          -6.7390    -0.3420     0.3230 ca         1 XJ8       0.323000
     27 C2          -7.4360    -0.4610     1.5470 ca         1 XJ8      -0.093000
     28 C3          -6.8950    -1.1710     2.5860 ca         1 XJ8      -0.095000
     29 C4          -5.6380    -1.7860     2.4550 ca         1 XJ8      -0.117000
     30 C5          -4.9280    -1.6920     1.2820 ca         1 XJ8      -0.080300
     31 C6          -5.4750    -0.9690     0.1930 ca         1 XJ8      -0.113000
     32 N7          -7.3180     0.3680    -0.6730 nb         1 XJ8      -0.763000
     33 C8          -6.6940     0.4820    -1.8220 ca         1 XJ8       0.620900
     34 C9          -5.4210    -0.1210    -2.0620 ca         1 XJ8      -0.209000
     35 N10         -7.3040     1.1600    -2.8240 nv         1 XJ8      -1.069900
     36 C11         -4.8320    -0.8300    -1.0670 ca         1 XJ8      -0.034000
     37 C12         -3.5650    -2.3270     1.1830 c3         1 XJ8       0.141300
     38 N13         -2.5230    -1.3190     1.1790 ns         1 XJ8      -0.496900
     39 H28          2.4680    -0.2880    -1.9480 ha         1 XJ8       0.117000
     40 H32          4.0600    -0.2670     2.0300 ha         1 XJ8       0.153000
     41 H29          4.6690    -0.7600    -2.8510 ha         1 XJ8       0.125000
     42 H37          6.9760    -1.1700    -2.4340 hn         1 XJ8       0.330500
     43 H34          8.7200    -1.2280     1.3630 ha         1 XJ8       0.210000
     44 H38          7.2340    -0.8310     3.0960 ho         1 XJ8       0.480000
     45 H24          0.8220    -0.9100    -0.7950 hn         1 XJ8       0.332500
     46 H21         -0.6330     0.3580     1.4250 h1         1 XJ8       0.094700
     47 H201        -2.2550     1.2990    -0.1800 hc         1 XJ8       0.058700
     48 H202        -1.3350     0.6570    -1.5340 hc         1 XJ8       0.058700
     49 H16          0.6980     1.7300    -2.2970 ha         1 XJ8       0.107000
     50 H18         -1.2970     3.1620     1.2030 ha         1 XJ8       0.107000
     51 H15          2.1600     3.7100    -2.2790 ha         1 XJ8       0.112500
     52 H19          0.1500     5.1550     1.2140 ha         1 XJ8       0.112500
     53 H14          1.8910     5.4370    -0.5240 ha         1 XJ8       0.113000
     54 H3          -7.4350    -1.2560     3.5200 ha         1 XJ8       0.117000
     55 H4          -5.2220    -2.3360     3.2910 ha         1 XJ8       0.114000
     56 H121        -3.4200    -3.0080     2.0240 h1         1 XJ8       0.066200
     57 H122        -3.4680    -2.9240     0.2770 h1         1 XJ8       0.066200
     58 H11         -3.8760    -1.2970    -1.2580 ha         1 XJ8       0.128000
     59 H9          -4.9460    -0.0160    -3.0280 ha         1 XJ8       0.122000
     60 H101        -8.1000     1.7280    -2.5870 hn         1 XJ8       0.480500
     61 H102        -6.7560     1.4850    -3.6010 hn         1 XJ8       0.480500
     62 H13         -2.5700    -0.6150     1.9000 hn         1 XJ8       0.321500
     63 H2          -8.4010     0.0200     1.6430 ha         1 XJ8       0.131000
@<TRIPOS>BOND
     1     1     2 2   
     2     1     3 1   
     3     1    15 1   
     4     3     4 ar  
     5     3     8 ar  
     6     4     5 ar  
     7     4    39 1   
     8     5     6 ar  
     9     5    41 1   
    10     6     7 ar  
    11     6    13 1   
    12     7     8 ar  
    13     7     9 1   
    14     8    40 1   
    15     9    10 2   
    16     9    14 1   
    17    10    11 1   
    18    10    43 1   
    19    11    12 2   
    20    11    13 1   
    21    13    42 1   
    22    14    44 1   
    23    15    16 1   
    24    15    45 1   
    25    16    17 1   
    26    16    19 1   
    27    16    46 1   
    28    17    18 2   
    29    17    38 1   
    30    19    20 1   
    31    19    47 1   
    32    19    48 1   
    33    20    21 ar  
    34    20    22 ar  
    35    21    23 ar  
    36    21    49 1   
    37    22    24 ar  
    38    22    50 1   
    39    23    25 ar  
    40    23    51 1   
    41    24    25 ar  
    42    24    52 1   
    43    25    53 1   
    44    26    27 ar  
    45    26    31 ar  
    46    26    32 ar  
    47    27    28 ar  
    48    27    63 1   
    49    28    29 ar  
    50    28    54 1   
    51    29    30 ar  
    52    29    55 1   
    53    30    31 ar  
    54    30    37 1   
    55    31    36 ar  
    56    32    33 ar  
    57    33    34 ar  
    58    33    35 1   
    59    34    36 ar  
    60    34    59 1   
    61    35    60 1   
    62    35    61 1   
    63    36    58 1   
    64    37    38 1   
    65    37    56 1   
    66    37    57 1   
    67    38    62 1   
@<TRIPOS>SUBSTRUCTURE
     1 XJ8         1 TEMP              0 ****  ****    0 ROOT
