@<TRIPOS>MOLECULE
XJ8
   63    67     1     0     0
SMALL
No Charge or Current Charge


@<TRIPOS>ATOM
      1 C25          1.9330    -0.1010     0.7600 c          1 XJ8       0.629700
      2 O26          1.8120     0.6080     1.7490 o          1 XJ8      -0.600100
      3 C27          3.2890    -0.5130     0.2330 ca         1 XJ8      -0.199600
      4 C28          3.4370    -1.3260    -0.9160 ca         1 XJ8      -0.022000
      5 C29          4.7170    -1.6790    -1.3720 ca         1 XJ8      -0.188000
      6 C30          5.8560    -1.2280    -0.6930 ca         1 XJ8       0.137600
      7 C31          5.7390    -0.4200     0.4480 ca         1 XJ8      -0.159800
      8 C32          4.4500    -0.0650     0.9050 ca         1 XJ8       0.030000
      9 C33          6.9590     0.0310     1.1280 cc         1 XJ8       0.246900
     10 C34          8.1750    -0.3560     0.6200 cd         1 XJ8      -0.437200
     11 C35          8.3230    -1.2020    -0.5730 c          1 XJ8       0.588200
     12 O36          9.4000    -1.5470    -1.0260 o          1 XJ8      -0.550000
     13 N37          7.1360    -1.5720    -1.1380 ns         1 XJ8      -0.380100
     14 O38          6.8350     0.8040     2.2180 oh         1 XJ8      -0.517100
     15 N24          0.8340    -0.5730     0.0750 ns         1 XJ8      -0.494900
     16 C21         -0.5730    -0.2010     0.3560 c3         1 XJ8       0.032700
     17 C22         -1.5040    -1.4370     0.2000 c          1 XJ8       0.589100
     18 O23         -1.1470    -2.4870    -0.3220 o          1 XJ8      -0.615100
     19 C20         -1.0340     0.9650    -0.5600 c3         1 XJ8      -0.044100
     20 C17         -0.1330     2.1930    -0.4800 ca         1 XJ8      -0.083300
     21 C16          0.8740     2.4030    -1.4440 ca         1 XJ8      -0.100000
     22 C18         -0.2960     3.1240     0.5640 ca         1 XJ8      -0.100000
     23 C15          1.7100     3.5300    -1.3610 ca         1 XJ8      -0.105500
     24 C19          0.5400     4.2520     0.6450 ca         1 XJ8      -0.105500
     25 C14          1.5440     4.4550    -0.3170 ca         1 XJ8      -0.103000
     26 C1          -7.1600    -0.3070     0.3300 ca         1 XJ8       0.323000
     27 C2          -7.7250    -0.6200     1.5790 ca         1 XJ8      -0.093000
     28 C3          -7.0530    -1.4470     2.4910 ca         1 XJ8      -0.095000
     29 C4          -5.7970    -1.9760     2.1620 ca         1 XJ8      -0.117000
     30 C5          -5.2000    -1.6880     0.9200 ca         1 XJ8      -0.080300
     31 C6          -5.8820    -0.8470    -0.0020 ca         1 XJ8      -0.113000
     32 N7          -7.8470     0.4990    -0.5150 nb         1 XJ8      -0.763000
     33 C8          -7.2940     0.7790    -1.6840 ca         1 XJ8       0.620900
     34 C9          -6.0530     0.3160    -2.1150 ca         1 XJ8      -0.209000
     35 N10         -8.0790     1.5840    -2.4000 nv         1 XJ8      -1.069900
     36 C11         -5.3230    -0.5200    -1.2590 ca         1 XJ8      -0.034000
     37 C12         -3.8300    -2.2890     0.6180 c3         1 XJ8       0.141300
     38 N13         -2.7800    -1.2740     0.6920 ns         1 XJ8      -0.496900
     39 H28          2.5760    -1.6910    -1.4710 ha         1 XJ8       0.117000
     40 H32          4.3480     0.5630     1.7880 ha         1 XJ8       0.153000
     41 H29          4.8200    -2.3030    -2.2560 ha         1 XJ8       0.125000
     42 H37          7.1990    -2.1550    -1.9610 hn         1 XJ8       0.330500
     43 H34          9.1130    -0.0600     1.0710 ha         1 XJ8       0.210000
     44 H38          7.7450     0.9970     2.5240 ho         1 XJ8       0.480000
     45 H24          1.0120    -1.2040    -0.6950 hn         1 XJ8       0.332500
     46 H21         -0.6550     0.1220     1.4020 h1         1 XJ8       0.094700
     47 H201        -2.0610     1.2480    -0.2980 hc         1 XJ8       0.058700
     48 H202        -1.0810     0.6040    -1.5950 hc         1 XJ8       0.058700
     49 H16          1.0130     1.6910    -2.2530 ha         1 XJ8       0.107000
     50 H18         -1.0670     2.9720     1.3160 ha         1 XJ8       0.107000
     51 H15          2.4880     3.6850    -2.1060 ha         1 XJ8       0.112500
     52 H19          0.4110     4.9660     1.4550 ha         1 XJ8       0.112500
     53 H14          2.1920     5.3260    -0.2530 ha         1 XJ8       0.113000
     54 H3          -7.5050    -1.6760     3.4530 ha         1 XJ8       0.117000
     55 H4          -5.2860    -2.6140     2.8800 ha         1 XJ8       0.114000
     56 H121        -3.5990    -3.0830     1.3400 h1         1 XJ8       0.066200
     57 H122        -3.8330    -2.7460    -0.3810 h1         1 XJ8       0.066200
     58 H11         -4.3540    -0.8930    -1.5790 ha         1 XJ8       0.128000
     59 H9          -5.6650     0.5930    -3.0900 ha         1 XJ8       0.122000
     60 H101        -8.8190     2.0220    -1.8660 hn         1 XJ8       0.480500
     61 H102        -7.6360     2.1570    -3.1100 hn         1 XJ8       0.480500
     62 H13         -3.0040    -0.3840     1.1200 hn         1 XJ8       0.321500
     63 H2          -8.6980    -0.2130     1.8410 ha         1 XJ8       0.131000
@<TRIPOS>BOND
     1     1     2 2   
     2     1     3 1   
     3     1    15 1   
     4     3     4 ar  
     5     3     8 ar  
     6     4     5 ar  
     7     4    39 1   
     8     5     6 ar  
     9     5    41 1   
    10     6     7 ar  
    11     6    13 1   
    12     7     8 ar  
    13     7     9 1   
    14     8    40 1   
    15     9    10 2   
    16     9    14 1   
    17    10    11 1   
    18    10    43 1   
    19    11    12 2   
    20    11    13 1   
    21    13    42 1   
    22    14    44 1   
    23    15    16 1   
    24    15    45 1   
    25    16    17 1   
    26    16    19 1   
    27    16    46 1   
    28    17    18 2   
    29    17    38 1   
    30    19    20 1   
    31    19    47 1   
    32    19    48 1   
    33    20    21 ar  
    34    20    22 ar  
    35    21    23 ar  
    36    21    49 1   
    37    22    24 ar  
    38    22    50 1   
    39    23    25 ar  
    40    23    51 1   
    41    24    25 ar  
    42    24    52 1   
    43    25    53 1   
    44    26    27 ar  
    45    26    31 ar  
    46    26    32 ar  
    47    27    28 ar  
    48    27    63 1   
    49    28    29 ar  
    50    28    54 1   
    51    29    30 ar  
    52    29    55 1   
    53    30    31 ar  
    54    30    37 1   
    55    31    36 ar  
    56    32    33 ar  
    57    33    34 ar  
    58    33    35 1   
    59    34    36 ar  
    60    34    59 1   
    61    35    60 1   
    62    35    61 1   
    63    36    58 1   
    64    37    38 1   
    65    37    56 1   
    66    37    57 1   
    67    38    62 1   
@<TRIPOS>SUBSTRUCTURE
     1 XJ8         1 TEMP              0 ****  ****    0 ROOT
