@<TRIPOS>MOLECULE
XJ9
   38    40     1     0     0
SMALL
No Charge or Current Charge


@<TRIPOS>ATOM
      1 N1         -18.1050    -4.3230   -24.8430 nb         1 XJ9      -0.662000
      2 C4         -20.5410    -6.2840   -27.0460 c3         1 XJ9      -0.104100
      3 C5         -20.3830    -6.1000   -28.5710 c          1 XJ9       0.607100
      4 C6         -21.4810    -3.7950   -28.4280 c6         1 XJ9       0.100000
      5 C7         -21.7450    -2.5040   -29.2410 c6         1 XJ9      -0.057100
      6 C8         -22.3870    -2.8210   -30.5810 ca         1 XJ9      -0.063300
      7 C10        -20.7730    -4.7620   -30.6810 c6         1 XJ9       0.134300
      8 C13        -23.5190    -3.4940   -33.0640 ca         1 XJ9       0.121000
      9 C15        -19.2110    -4.7180   -25.5140 ca         1 XJ9       0.343900
     10 O          -19.8250    -6.9680   -29.2310 o          1 XJ9      -0.580100
     11 N          -20.8540    -4.9190   -29.1950 n          1 XJ9      -0.411800
     12 C11        -21.9160    -3.9400   -31.2820 ca         1 XJ9      -0.088300
     13 C12        -22.4830    -4.2770   -32.5260 ca         1 XJ9      -0.089000
     14 C14        -23.9890    -2.3660   -32.3570 ca         1 XJ9       0.121000
     15 Cl1        -25.2860    -1.3600   -33.0050 cl         1 XJ9      -0.170000
     16 C9         -23.4200    -2.0300   -31.1170 ca         1 XJ9      -0.095000
     17 C3         -19.2620    -5.8850   -26.3070 ca         1 XJ9      -0.121300
     18 C2         -18.1060    -6.6810   -26.4000 ca         1 XJ9      -0.055000
     19 C16        -16.9980    -5.0940   -24.9440 ca         1 XJ9       0.339900
     20 C1         -16.9490    -6.2780   -25.7090 ca         1 XJ9      -0.124300
     21 C          -15.6770    -7.1090   -25.7820 c3         1 XJ9      -0.042800
     22 H4         -20.7440    -7.3420   -26.8470 hc         1 XJ9       0.065700
     23 H5         -21.3770    -5.6910   -26.6620 hc         1 XJ9       0.065700
     24 H6         -22.4440    -4.1490   -28.0320 h1         1 XJ9       0.056700
     25 H7         -20.8470    -3.5380   -27.5690 h1         1 XJ9       0.056700
     26 H8         -22.3740    -1.8200   -28.6550 hc         1 XJ9       0.061200
     27 H9         -20.7940    -1.9810   -29.4130 hc         1 XJ9       0.061200
     28 H12        -19.8180    -4.2800   -30.9340 h1         1 XJ9       0.075700
     29 H11        -20.7690    -5.7510   -31.1610 h1         1 XJ9       0.075700
     30 H14        -20.0860    -4.0780   -25.4090 h4         1 XJ9       0.014100
     31 H13        -22.1220    -5.1410   -33.0780 ha         1 XJ9       0.135000
     32 H10        -23.7840    -1.1610   -30.5750 ha         1 XJ9       0.130000
     33 H3         -18.1040    -7.5910   -26.9970 ha         1 XJ9       0.117000
     34 H15        -16.1230    -4.7520   -24.3930 h4         1 XJ9       0.017100
     35 H2         -15.5000    -7.4720   -26.8020 hc         1 XJ9       0.045033
     36 H          -14.7970    -6.5270   -25.4820 hc         1 XJ9       0.045033
     37 H1         -15.7420    -7.9820   -25.1220 hc         1 XJ9       0.045033
     38 Cl         -24.2090    -3.9430   -34.6250 cl         1 XJ9      -0.169000
@<TRIPOS>BOND
     1     1     9 ar  
     2     1    19 ar  
     3     2     3 1   
     4     2    17 1   
     5     2    22 1   
     6     2    23 1   
     7     3    10 2   
     8     3    11 1   
     9     4     5 1   
    10     4    11 1   
    11     4    24 1   
    12     4    25 1   
    13     5     6 1   
    14     5    26 1   
    15     5    27 1   
    16     6    12 ar  
    17     6    16 ar  
    18     7    11 1   
    19     7    12 1   
    20     7    28 1   
    21     7    29 1   
    22     8    13 ar  
    23     8    14 ar  
    24     8    38 1   
    25     9    17 ar  
    26     9    30 1   
    27    12    13 ar  
    28    13    31 1   
    29    14    15 1   
    30    14    16 ar  
    31    16    32 1   
    32    17    18 ar  
    33    18    20 ar  
    34    18    33 1   
    35    19    20 ar  
    36    19    34 1   
    37    20    21 1   
    38    21    35 1   
    39    21    36 1   
    40    21    37 1   
@<TRIPOS>SUBSTRUCTURE
     1 XJ9         1 TEMP              0 ****  ****    0 ROOT
