@<TRIPOS>MOLECULE
XJ9
   38    40     1     0     0
SMALL
abcg2


@<TRIPOS>ATOM
      1 N1         -16.6630    -3.8640   -26.0320 nb         1 XJ9      -0.662000
      2 C4         -20.0580    -5.0930   -27.0400 c3         1 XJ9      -0.104100
      3 C5         -20.1810    -5.3780   -28.5320 c          1 XJ9       0.607100
      4 C6         -22.6190    -4.9000   -28.3500 c6         1 XJ9       0.100000
      5 C7         -22.9390    -3.4700   -28.7570 c6         1 XJ9      -0.057100
      6 C8         -22.8870    -3.3020   -30.2520 ca         1 XJ9      -0.063300
      7 C10        -21.6450    -5.4960   -30.4710 c6         1 XJ9       0.134300
      8 C13        -22.8080    -2.9570   -33.0200 ca         1 XJ9       0.121000
      9 C15        -17.9300    -3.9170   -26.4170 ca         1 XJ9       0.343900
     10 O          -19.1980    -5.6350   -29.2070 o          1 XJ9      -0.580100
     11 N          -21.4310    -5.3520   -29.0490 n          1 XJ9      -0.411800
     12 C11        -22.2680    -4.2550   -31.0610 ca         1 XJ9      -0.088300
     13 C12        -22.2390    -4.0750   -32.4380 ca         1 XJ9      -0.089000
     14 C14        -23.4160    -1.9990   -32.2160 ca         1 XJ9       0.121000
     15 CL1        -24.1260    -0.5900   -32.9090 cl         1 XJ9      -0.170000
     16 C9         -23.4550    -2.1790   -30.8450 ca         1 XJ9      -0.095000
     17 C3         -18.6320    -5.1040   -26.5870 ca         1 XJ9      -0.121300
     18 C2         -17.9540    -6.2870   -26.3310 ca         1 XJ9      -0.055000
     19 C16        -16.0330    -5.0080   -25.7970 ca         1 XJ9       0.339900
     20 C1         -16.6250    -6.2610   -25.9250 ca         1 XJ9      -0.124300
     21 C          -15.8660    -7.5190   -25.6360 c3         1 XJ9      -0.042800
     22 H4         -20.6350    -5.8390   -26.4840 hc         1 XJ9       0.065700
     23 H5         -20.5120    -4.1260   -26.8110 hc         1 XJ9       0.065700
     24 H6         -23.4430    -5.5650   -28.6210 h1         1 XJ9       0.056700
     25 H7         -22.5000    -4.9800   -27.2730 h1         1 XJ9       0.056700
     26 H8         -23.9240    -3.1880   -28.3810 hc         1 XJ9       0.061200
     27 H9         -22.2210    -2.7890   -28.2890 hc         1 XJ9       0.061200
     28 H12        -20.6990    -5.7140   -30.9610 h1         1 XJ9       0.075700
     29 H11        -22.3040    -6.3530   -30.6510 h1         1 XJ9       0.075700
     30 H14        -18.4230    -2.9670   -26.6010 h4         1 XJ9       0.014100
     31 H13        -21.7600    -4.8150   -33.0680 ha         1 XJ9       0.135000
     32 H10        -23.9390    -1.4340   -30.2260 ha         1 XJ9       0.130000
     33 H3         -18.4650    -7.2380   -26.4470 ha         1 XJ9       0.117000
     34 H15        -14.9950    -4.9330   -25.4870 h4         1 XJ9       0.017100
     35 H2         -15.9530    -8.2290   -26.4580 hc         1 XJ9       0.045033
     36 H          -14.8070    -7.3180   -25.4760 hc         1 XJ9       0.045033
     37 H1         -16.2480    -8.0140   -24.7410 hc         1 XJ9       0.045033
     38 CL         -22.7450    -2.7630   -34.7310 cl         1 XJ9      -0.169000
@<TRIPOS>BOND
     1     1     9 ar  
     2     1    19 ar  
     3     2     3 1   
     4     2    17 1   
     5     2    22 1   
     6     2    23 1   
     7     3    10 2   
     8     3    11 1   
     9     4     5 1   
    10     4    11 1   
    11     4    24 1   
    12     4    25 1   
    13     5     6 1   
    14     5    26 1   
    15     5    27 1   
    16     6    12 ar  
    17     6    16 ar  
    18     7    11 1   
    19     7    12 1   
    20     7    28 1   
    21     7    29 1   
    22     8    13 ar  
    23     8    14 ar  
    24     8    38 1   
    25     9    17 ar  
    26     9    30 1   
    27    12    13 ar  
    28    13    31 1   
    29    14    15 1   
    30    14    16 ar  
    31    16    32 1   
    32    17    18 ar  
    33    18    20 ar  
    34    18    33 1   
    35    19    20 ar  
    36    19    34 1   
    37    20    21 1   
    38    21    35 1   
    39    21    36 1   
    40    21    37 1   
@<TRIPOS>SUBSTRUCTURE
     1 XJ9         1 TEMP              0 ****  ****    0 ROOT
