@<TRIPOS>MOLECULE
XJB
   57    59     1     0     0
SMALL
No Charge or Current Charge


@<TRIPOS>ATOM
      1 C16         -7.1900     4.9580    11.3190 cp         1 XJB       0.264500
      2 C18         -6.8310     6.9520    12.8580 ca         1 XJB      -0.023000
      3 C21        -10.1880    10.4670    13.5000 c3         1 XJB       0.141900
      4 C20         -8.5360     8.6700    13.1390 ca         1 XJB       0.165100
      5 C17         -7.6650     6.2230    11.9740 cp         1 XJB      -0.215500
      6 C14        -12.0370     6.6540    14.9520 c3         1 XJB      -0.203400
      7 C5          -6.4770     3.6940    15.6870 c3         1 XJB      -0.073400
      8 C2          -6.0200     2.8370    11.2090 ca         1 XJB       0.383900
      9 C6          -6.5730     5.1710    16.1190 c3         1 XJB       0.168600
     10 C3          -6.4160     3.9560    11.9720 ca         1 XJB      -0.115900
     11 C8          -7.5360     7.7580    17.0280 ca         1 XJB      -0.207000
     12 C12         -9.7280     7.1860    16.0890 ca         1 XJB      -0.063300
     13 C9          -8.0140     9.0280    17.3860 ca         1 XJB      -0.107000
     14 C1          -7.0900     3.6870     9.4070 ca         1 XJB       0.387900
     15 C10         -9.3420     9.3780    17.1090 ca         1 XJB      -0.149000
     16 C11        -10.1950     8.4670    16.4660 ca         1 XJB      -0.080000
     17 C15        -12.7810     5.5300    14.2100 c          1 XJB       0.706000
     18 C19         -7.2630     8.1590    13.4300 ca         1 XJB      -0.174000
     19 C22         -9.3850     7.9570    12.2680 ca         1 XJB      -0.174000
     20 C23         -8.9510     6.7520    11.6910 ca         1 XJB      -0.023000
     21 C7          -8.3890     6.8320    16.3850 ca         1 XJB       0.123100
     22 N1          -7.4340     3.5490     8.1070 nv         1 XJB      -1.047900
     23 N2          -6.3490     2.7000     9.9210 nb         1 XJB      -0.328000
     24 N3          -5.2720     1.8230    11.7240 nv         1 XJB      -1.069900
     25 N4          -7.5310     4.7910    10.0230 nb         1 XJB      -0.274000
     26 O1          -6.1220     4.0610    13.3200 os         1 XJB      -0.371100
     27 O2          -7.9530     5.5660    16.0400 os         1 XJB      -0.345100
     28 O3         -12.6570     5.4570    12.9980 o          1 XJB      -0.744000
     29 O4         -13.4280     4.7340    14.8730 o          1 XJB      -0.744000
     30 H1          -5.8300     6.5920    13.0830 ha         1 XJB       0.124000
     31 H2         -10.2700    11.4080    14.0590 h1         1 XJB       0.045367
     32 H3         -10.3460    10.6880    12.4370 h1         1 XJB       0.045367
     33 H4         -10.9860     9.7980    13.8440 h1         1 XJB       0.045367
     34 H5         -12.5550     6.8960    15.8880 hc         1 XJB       0.018700
     35 H6         -11.8830     7.5120    14.2870 hc         1 XJB       0.018700
     36 H7         -10.7310     5.2760    15.9890 hc         1 XJB       0.063700
     37 H8         -10.1050     5.8320    14.4520 hc         1 XJB       0.063700
     38 H9          -7.0510     3.0850    16.3960 hc         1 XJB       0.049200
     39 H10         -5.4350     3.3640    15.7640 hc         1 XJB       0.049200
     40 H11         -6.2010     5.2640    17.1480 h1         1 XJB       0.030200
     41 H12         -5.9510     5.7950    15.4640 h1         1 XJB       0.030200
     42 H13         -6.5060     7.5100    17.2620 ha         1 XJB       0.099000
     43 H14         -7.3560     9.7380    17.8820 ha         1 XJB       0.092000
     44 H15         -8.0240     3.7820    14.1560 h1         1 XJB       0.059200
     45 H16         -7.0070     2.3300    14.0900 h1         1 XJB       0.059200
     46 H17         -9.7130    10.3620    17.3890 ha         1 XJB       0.099000
     47 H18        -11.2170     8.7740    16.2610 ha         1 XJB       0.125000
     48 H19         -6.6060     8.7060    14.1010 ha         1 XJB       0.127000
     49 H20        -10.3770     8.3230    12.0230 ha         1 XJB       0.127000
     50 H21         -9.6210     6.2200    11.0190 ha         1 XJB       0.124000
     51 H22         -7.8110     4.3550     7.6150 hn         1 XJB       0.474500
     52 H23         -6.9600     2.8440     7.5480 hn         1 XJB       0.474500
     53 H24         -4.8200     1.1830    11.0760 hn         1 XJB       0.484500
     54 H25         -4.8030     1.9870    12.6110 hn         1 XJB       0.484500
     55 C4          -6.9950     3.4140    14.2620 c3         1 XJB       0.146600
     56 O5          -8.8950     9.8730    13.7130 os         1 XJB      -0.352100
     57 C13        -10.6220     6.1680    15.3600 c3         1 XJB      -0.017100
@<TRIPOS>BOND
     1     1     5 1   
     2     1    10 ar  
     3     1    25 ar  
     4     2     5 ar  
     5     2    18 ar  
     6     2    30 1   
     7     3    31 1   
     8     3    32 1   
     9     3    33 1   
    10     3    56 1   
    11     4    18 ar  
    12     4    19 ar  
    13     4    56 1   
    14     5    20 ar  
    15     6    17 1   
    16     6    34 1   
    17     6    35 1   
    18     6    57 1   
    19     7     9 1   
    20     7    38 1   
    21     7    39 1   
    22     7    55 1   
    23     8    10 ar  
    24     8    23 ar  
    25     8    24 1   
    26     9    27 1   
    27     9    40 1   
    28     9    41 1   
    29    10    26 1   
    30    11    13 ar  
    31    11    21 ar  
    32    11    42 1   
    33    12    16 ar  
    34    12    21 ar  
    35    12    57 1   
    36    13    15 ar  
    37    13    43 1   
    38    14    22 1   
    39    14    23 ar  
    40    14    25 ar  
    41    15    16 ar  
    42    15    46 1   
    43    16    47 1   
    44    17    28 1   
    45    17    29 1   
    46    18    48 1   
    47    19    20 ar  
    48    19    49 1   
    49    20    50 1   
    50    21    27 1   
    51    22    51 1   
    52    22    52 1   
    53    24    53 1   
    54    24    54 1   
    55    26    55 1   
    56    36    57 1   
    57    37    57 1   
    58    44    55 1   
    59    45    55 1   
@<TRIPOS>SUBSTRUCTURE
     1 XJB         1 TEMP              0 ****  ****    0 ROOT
