@<TRIPOS>MOLECULE
XJD
   84    83     1     0     0
SMALL
abcg2


@<TRIPOS>ATOM
      1 C11        149.9670   144.3220    93.3620 c3         1 XJD       0.231600
      2 C12        150.9120   144.7930    92.2710 c3         1 XJD       0.132800
      3 C13        153.0480   145.5190   100.2530 c          1 XJD       0.600100
      4 C14        153.8940   144.5050   100.9810 c3         1 XJD      -0.132400
      5 C15        153.1610   143.2570   101.4670 c3         1 XJD      -0.064400
      6 C16        152.0260   143.5590   102.4370 c3         1 XJD      -0.079400
      7 C17        151.3700   142.2960   102.9810 c3         1 XJD      -0.073400
      8 C18        150.1240   142.5540   103.8220 c3         1 XJD      -0.076400
      9 C19        150.3800   143.3690   105.0850 c3         1 XJD      -0.072400
     10 C20        149.1370   143.5590   105.9490 c3         1 XJD      -0.078400
     11 C21        148.6330   142.3000   106.6420 c3         1 XJD      -0.073400
     12 C22        147.3880   142.5610   107.4800 c3         1 XJD      -0.076400
     13 C23        146.8450   141.3160   108.1670 c3         1 XJD      -0.075400
     14 C25        145.0450   140.3310   109.6610 c3         1 XJD      -0.088100
     15 N          150.1570   145.0800    91.0620 n8         1 XJD      -1.003200
     16 O          147.7620   145.2780   100.6780 o          1 XJD      -0.475000
     17 C1         145.7180   146.3490   108.0850 c3         1 XJD      -0.088100
     18 C10        151.4770   145.3340    97.1520 c3         1 XJD       0.229600
     19 C2         146.8710   146.7310   107.1670 c3         1 XJD      -0.075400
     20 C24        145.5900   141.5830   108.9890 c3         1 XJD      -0.075400
     21 C3         146.6150   146.3640   105.7110 c3         1 XJD      -0.077400
     22 C4         147.7750   146.7180   104.7880 c3         1 XJD      -0.078400
     23 C5         147.6100   146.1530   103.3820 c3         1 XJD      -0.068400
     24 C6         148.8380   146.4030   102.5220 c3         1 XJD      -0.142400
     25 C7         148.7260   145.8410   101.1300 c          1 XJD       0.589100
     26 C8         149.9050   145.5220    99.1060 c3         1 XJD       0.147600
     27 C9         151.3180   145.7330    98.6050 c3         1 XJD       0.149300
     28 O1         149.8440   146.0410   100.4340 os         1 XJD      -0.461100
     29 O2         151.1550   143.9760    96.9510 os         1 XJD      -0.571400
     30 O3         149.9120   142.0600    95.9330 o          1 XJD      -0.815500
     31 O4         148.7400   144.3830    96.1260 o          1 XJD      -0.815500
     32 O5         150.7230   144.0610    94.5280 os         1 XJD      -0.622400
     33 O6         152.2060   144.9380    99.4000 os         1 XJD      -0.419100
     34 O7         153.1490   146.7110   100.3950 o          1 XJD      -0.515000
     35 P          149.9660   143.5530    95.9000 p5         1 XJD       1.393800
     36 H1         149.2110   145.0930    93.5400 h1         1 XJD       0.025700
     37 H2         149.4390   143.4200    93.0250 h1         1 XJD       0.025700
     38 H3         151.7060   144.0460    92.1350 h1         1 XJD       0.031200
     39 H4         151.3990   145.7140    92.6010 h1         1 XJD       0.031200
     40 H5         154.7010   144.2150   100.3000 hc         1 XJD       0.060200
     41 H6         154.3680   145.0180   101.8190 hc         1 XJD       0.060200
     42 H7         152.7840   142.6840   100.6170 hc         1 XJD       0.051200
     43 H8         153.8960   142.6150   101.9610 hc         1 XJD       0.051200
     44 H9         152.4120   144.1680   103.2600 hc         1 XJD       0.041700
     45 H10        151.2640   144.1680   101.9400 hc         1 XJD       0.041700
     46 H11        151.1000   141.6490   102.1400 hc         1 XJD       0.039200
     47 H12        152.1010   141.7350   103.5730 hc         1 XJD       0.039200
     48 H13        149.3760   143.0730   103.2100 hc         1 XJD       0.041700
     49 H14        149.6800   141.5920   104.0890 hc         1 XJD       0.041700
     50 H15        151.1700   142.8920   105.6770 hc         1 XJD       0.035200
     51 H16        150.7640   144.3550   104.8070 hc         1 XJD       0.035200
     52 H17        149.3380   144.3200   106.7110 hc         1 XJD       0.037200
     53 H18        148.3330   143.9680   105.3280 hc         1 XJD       0.037200
     54 H19        148.4100   141.5250   105.9020 hc         1 XJD       0.037700
     55 H20        149.4260   141.8910   107.2780 hc         1 XJD       0.037700
     56 H21        147.6080   143.3270   108.2330 hc         1 XJD       0.035700
     57 H22        146.6070   142.9890   106.8400 hc         1 XJD       0.035700
     58 H23        146.6290   140.5510   107.4130 hc         1 XJD       0.036700
     59 H24        147.6200   140.8890   108.8140 hc         1 XJD       0.036700
     60 H25        144.1450   140.5430   110.2390 hc         1 XJD       0.029367
     61 H26        144.7910   139.5690   108.9220 hc         1 XJD       0.029367
     62 H27        145.7790   139.8960   110.3410 hc         1 XJD       0.029367
     63 H28        150.7660   145.5100    90.3780 hn         1 XJD       0.379500
     64 H29        149.8450   144.2130    90.6430 hn         1 XJD       0.379500
     65 H31        145.9250   146.6140   109.1220 hc         1 XJD       0.029367
     66 H32        144.7950   146.8540   107.7930 hc         1 XJD       0.029367
     67 H33        145.5280   145.2740   108.0520 hc         1 XJD       0.029367
     68 H34        152.5140   145.5060    96.8490 h1         1 XJD       0.031700
     69 H35        150.8550   146.0090    96.5560 h1         1 XJD       0.031700
     70 H36        147.7840   146.2290   107.5020 hc         1 XJD       0.035200
     71 H37        147.0670   147.8040   107.2470 hc         1 XJD       0.035200
     72 H38        145.8090   142.3420   109.7460 hc         1 XJD       0.035700
     73 H39        144.8220   142.0160   108.3410 hc         1 XJD       0.035700
     74 H40        145.7020   146.8580   105.3610 hc         1 XJD       0.039700
     75 H41        146.4180   145.2880   105.6480 hc         1 XJD       0.039700
     76 H42        148.7070   146.3390   105.2210 hc         1 XJD       0.035700
     77 H43        147.8880   147.8060   104.7390 hc         1 XJD       0.035700
     78 H44        146.7250   146.5880   102.9110 hc         1 XJD       0.053700
     79 H45        147.4270   145.0770   103.4500 hc         1 XJD       0.053700
     80 H46        149.7260   145.9710   102.9950 hc         1 XJD       0.066700
     81 H47        149.0440   147.4750   102.4420 hc         1 XJD       0.066700
     82 H48        149.2080   146.0540    98.4550 h1         1 XJD       0.088200
     83 H49        149.6390   144.4640    99.0970 h1         1 XJD       0.088200
     84 H50        151.5830   146.7910    98.6850 h1         1 XJD       0.061700
@<TRIPOS>BOND
     1     1     2 1   
     2     1    32 1   
     3     1    36 1   
     4     1    37 1   
     5     2    15 1   
     6     2    38 1   
     7     2    39 1   
     8     3     4 1   
     9     3    33 1   
    10     3    34 2   
    11     4     5 1   
    12     4    40 1   
    13     4    41 1   
    14     5     6 1   
    15     5    42 1   
    16     5    43 1   
    17     6     7 1   
    18     6    44 1   
    19     6    45 1   
    20     7     8 1   
    21     7    46 1   
    22     7    47 1   
    23     8     9 1   
    24     8    48 1   
    25     8    49 1   
    26     9    10 1   
    27     9    50 1   
    28     9    51 1   
    29    10    11 1   
    30    10    52 1   
    31    10    53 1   
    32    11    12 1   
    33    11    54 1   
    34    11    55 1   
    35    12    13 1   
    36    12    56 1   
    37    12    57 1   
    38    13    20 1   
    39    13    58 1   
    40    13    59 1   
    41    14    20 1   
    42    14    60 1   
    43    14    61 1   
    44    14    62 1   
    45    15    63 1   
    46    15    64 1   
    47    16    25 2   
    48    17    19 1   
    49    17    65 1   
    50    17    66 1   
    51    17    67 1   
    52    18    27 1   
    53    18    29 1   
    54    18    68 1   
    55    18    69 1   
    56    19    21 1   
    57    19    70 1   
    58    19    71 1   
    59    20    72 1   
    60    20    73 1   
    61    21    22 1   
    62    21    74 1   
    63    21    75 1   
    64    22    23 1   
    65    22    76 1   
    66    22    77 1   
    67    23    24 1   
    68    23    78 1   
    69    23    79 1   
    70    24    25 1   
    71    24    80 1   
    72    24    81 1   
    73    25    28 1   
    74    26    27 1   
    75    26    28 1   
    76    26    82 1   
    77    26    83 1   
    78    27    33 1   
    79    27    84 1   
    80    29    35 1   
    81    30    35 1   
    82    31    35 1   
    83    32    35 1   
@<TRIPOS>SUBSTRUCTURE
     1 XJD         1 TEMP              0 ****  ****    0 ROOT
