@<TRIPOS>MOLECULE
XJD
   84    83     1     0     0
SMALL
No Charge or Current Charge


@<TRIPOS>ATOM
      1 C11        151.9200   145.4110    93.1200 c3         1 XJD       0.231600
      2 C12        150.8060   146.4780    92.8770 c3         1 XJD       0.132800
      3 C13        152.4870   144.6900   100.0950 c          1 XJD       0.600100
      4 C14        153.1610   143.4860   100.7610 c3         1 XJD      -0.132400
      5 C15        152.1510   142.5710   101.4950 c3         1 XJD      -0.064400
      6 C16        151.4810   143.2290   102.7230 c3         1 XJD      -0.079400
      7 C17        150.5590   142.2540   103.4910 c3         1 XJD      -0.073400
      8 C18        149.8100   142.8910   104.6840 c3         1 XJD      -0.076400
      9 C19        150.7110   143.3090   105.8720 c3         1 XJD      -0.072400
     10 C20        149.9440   143.9680   107.0440 c3         1 XJD      -0.078400
     11 C21        148.9930   143.0150   107.8040 c3         1 XJD      -0.073400
     12 C22        148.2610   143.7020   108.9780 c3         1 XJD      -0.076400
     13 C23        147.3190   142.7480   109.7430 c3         1 XJD      -0.075400
     14 C25        145.5980   142.4980   111.6390 c3         1 XJD      -0.088100
     15 N          151.2810   147.6760    92.1330 n8         1 XJD      -1.003200
     16 O          147.2830   145.3520    98.9240 o          1 XJD      -0.475000
     17 C1         145.1910   143.4380   106.5290 c3         1 XJD      -0.088100
     18 C10        151.9720   145.2970    96.5450 c3         1 XJD       0.229600
     19 C2         145.8870   144.5510   105.7240 c3         1 XJD      -0.075400
     20 C24        146.5440   143.4480   110.8800 c3         1 XJD      -0.075400
     21 C3         146.2050   144.1400   104.2700 c3         1 XJD      -0.077400
     22 C4         146.8780   145.2690   103.4590 c3         1 XJD      -0.078400
     23 C5         147.2750   144.8400   102.0290 c3         1 XJD      -0.068400
     24 C6         147.8580   146.0040   101.1940 c3         1 XJD      -0.142400
     25 C7         148.1530   145.5870    99.7500 c          1 XJD       0.589100
     26 C8         149.9140   145.2070    98.1470 c3         1 XJD       0.147600
     27 C9         151.4470   145.4090    98.0070 c3         1 XJD       0.149300
     28 O1         149.4980   145.5510    99.4870 os         1 XJD      -0.461100
     29 O2         151.6270   144.0230    95.9700 os         1 XJD      -0.571400
     30 O3         149.9480   142.4910    94.8320 o          1 XJD      -0.815500
     31 O4         149.3840   144.8780    95.0200 o          1 XJD      -0.815500
     32 O5         151.3780   144.1380    93.5280 os         1 XJD      -0.622400
     33 O6         152.1430   144.4120    98.7960 os         1 XJD      -0.419100
     34 O7         152.3080   145.7630   100.6550 o          1 XJD      -0.515000
     35 P          150.4790   143.8840    94.8470 p5         1 XJD       1.393800
     36 H1         152.4770   145.2730    92.1840 h1         1 XJD       0.025700
     37 H2         152.6330   145.7880    93.8650 h1         1 XJD       0.025700
     38 H3         150.4060   146.8250    93.8380 h1         1 XJD       0.031200
     39 H4         149.9890   146.0220    92.3000 h1         1 XJD       0.031200
     40 H5         153.6250   142.8690    99.9820 hc         1 XJD       0.060200
     41 H6         153.9180   143.8350   101.4730 hc         1 XJD       0.060200
     42 H7         151.3770   142.2460   100.7880 hc         1 XJD       0.051200
     43 H8         152.6770   141.6660   101.8230 hc         1 XJD       0.051200
     44 H9         152.2640   143.6010   103.3950 hc         1 XJD       0.041700
     45 H10        150.8930   144.0960   102.4000 hc         1 XJD       0.041700
     46 H11        149.8130   141.8540   102.7930 hc         1 XJD       0.039200
     47 H12        151.1450   141.3980   103.8480 hc         1 XJD       0.039200
     48 H13        149.2600   143.7690   104.3290 hc         1 XJD       0.041700
     49 H14        149.0630   142.1690   105.0330 hc         1 XJD       0.041700
     50 H15        151.2590   142.4340   106.2420 hc         1 XJD       0.035200
     51 H16        151.4630   144.0250   105.5190 hc         1 XJD       0.035200
     52 H17        150.6770   144.3710   107.7530 hc         1 XJD       0.037200
     53 H18        149.3750   144.8260   106.6630 hc         1 XJD       0.037200
     54 H19        148.2430   142.6130   107.1140 hc         1 XJD       0.037700
     55 H20        149.5670   142.1620   108.1860 hc         1 XJD       0.037700
     56 H21        149.0020   144.1120   109.6760 hc         1 XJD       0.035700
     57 H22        147.6810   144.5500   108.5930 hc         1 XJD       0.035700
     58 H23        146.6020   142.3050   109.0400 hc         1 XJD       0.036700
     59 H24        147.9060   141.9210   110.1620 hc         1 XJD       0.036700
     60 H25        145.0710   143.0380   112.4340 hc         1 XJD       0.029367
     61 H26        144.8490   142.0710   110.9590 hc         1 XJD       0.029367
     62 H27        146.1590   141.6740   112.0970 hc         1 XJD       0.029367
     63 H28        150.5050   148.3440    92.0420 hn         1 XJD       0.379500
     64 H29        151.9690   148.1810    92.7070 hn         1 XJD       0.379500
     65 H31        145.0080   143.7690   107.5580 hc         1 XJD       0.029367
     66 H32        144.2270   143.1770   106.0760 hc         1 XJD       0.029367
     67 H33        145.8120   142.5360   106.5630 hc         1 XJD       0.029367
     68 H34        153.0620   145.4240    96.5490 h1         1 XJD       0.031700
     69 H35        151.5540   146.1250    95.9580 h1         1 XJD       0.031700
     70 H36        146.8180   144.8310   106.2320 hc         1 XJD       0.035200
     71 H37        145.2460   145.4410   105.7190 hc         1 XJD       0.035200
     72 H38        147.2560   143.8850   111.5910 hc         1 XJD       0.035700
     73 H39        145.9570   144.2760   110.4640 hc         1 XJD       0.035700
     74 H40        145.2760   143.8430   103.7680 hc         1 XJD       0.039700
     75 H41        146.8560   143.2570   104.2800 hc         1 XJD       0.039700
     76 H42        147.7700   145.6210   103.9910 hc         1 XJD       0.035700
     77 H43        146.1890   146.1210   103.4010 hc         1 XJD       0.035700
     78 H44        146.3900   144.4390   101.5180 hc         1 XJD       0.053700
     79 H45        148.0100   144.0250   102.0800 hc         1 XJD       0.053700
     80 H46        148.7800   146.3560   101.6710 hc         1 XJD       0.066700
     81 H47        147.1240   146.8180   101.1690 hc         1 XJD       0.066700
     82 H48        149.4130   145.8590    97.4190 h1         1 XJD       0.088200
     83 H49        149.6540   144.1670    97.9080 h1         1 XJD       0.088200
     84 H50        151.6970   146.4240    98.3450 h1         1 XJD       0.061700
@<TRIPOS>BOND
     1     1     2 1   
     2     1    32 1   
     3     1    36 1   
     4     1    37 1   
     5     2    15 1   
     6     2    38 1   
     7     2    39 1   
     8     3     4 1   
     9     3    33 1   
    10     3    34 2   
    11     4     5 1   
    12     4    40 1   
    13     4    41 1   
    14     5     6 1   
    15     5    42 1   
    16     5    43 1   
    17     6     7 1   
    18     6    44 1   
    19     6    45 1   
    20     7     8 1   
    21     7    46 1   
    22     7    47 1   
    23     8     9 1   
    24     8    48 1   
    25     8    49 1   
    26     9    10 1   
    27     9    50 1   
    28     9    51 1   
    29    10    11 1   
    30    10    52 1   
    31    10    53 1   
    32    11    12 1   
    33    11    54 1   
    34    11    55 1   
    35    12    13 1   
    36    12    56 1   
    37    12    57 1   
    38    13    20 1   
    39    13    58 1   
    40    13    59 1   
    41    14    20 1   
    42    14    60 1   
    43    14    61 1   
    44    14    62 1   
    45    15    63 1   
    46    15    64 1   
    47    16    25 2   
    48    17    19 1   
    49    17    65 1   
    50    17    66 1   
    51    17    67 1   
    52    18    27 1   
    53    18    29 1   
    54    18    68 1   
    55    18    69 1   
    56    19    21 1   
    57    19    70 1   
    58    19    71 1   
    59    20    72 1   
    60    20    73 1   
    61    21    22 1   
    62    21    74 1   
    63    21    75 1   
    64    22    23 1   
    65    22    76 1   
    66    22    77 1   
    67    23    24 1   
    68    23    78 1   
    69    23    79 1   
    70    24    25 1   
    71    24    80 1   
    72    24    81 1   
    73    25    28 1   
    74    26    27 1   
    75    26    28 1   
    76    26    82 1   
    77    26    83 1   
    78    27    33 1   
    79    27    84 1   
    80    29    35 1   
    81    30    35 1   
    82    31    35 1   
    83    32    35 1   
@<TRIPOS>SUBSTRUCTURE
     1 XJD         1 TEMP              0 ****  ****    0 ROOT
