@<TRIPOS>MOLECULE
XJE
   30    31     1     0     0
SMALL
bcc


@<TRIPOS>ATOM
      1 C01         -1.6070     3.6140    -0.2270 c3         1 XJE       0.129700
      2 C03         -1.6920     1.2390    -0.0980 ca         1 XJE       0.201100
      3 C04         -3.0680     1.2760     0.0640 ca         1 XJE      -0.288000
      4 C05         -3.8190     0.1040     0.1730 ca         1 XJE      -0.043300
      5 C06         -5.3070     0.1850     0.3280 c3         1 XJE      -0.033800
      6 C07         -3.1750    -1.1150     0.1010 ca         1 XJE      -0.205000
      7 C08         -1.7950    -1.1470    -0.0560 ca         1 XJE       0.182100
      8 C10          0.0570    -2.6130    -0.3550 c          1 XJE       0.747800
      9 C12          0.9090    -1.4640    -0.3530 cc         1 XJE      -0.314200
     10 C13          0.4530    -0.1930    -0.2080 cd         1 XJE       0.136600
     11 C14          1.4470     0.9250    -0.1330 c3         1 XJE      -0.197400
     12 C19         -0.9930    -0.0010    -0.1180 ca         1 XJE      -0.135800
     13 O02         -0.9700     2.3520    -0.2650 os         1 XJE      -0.264900
     14 O09         -1.2660    -2.3860    -0.1470 os         1 XJE      -0.375200
     15 O11          0.3950    -3.7690    -0.4910 o          1 XJE      -0.635500
     16 O16          3.0090    -0.0400     1.8770 o          1 XJE      -0.920167
     17 O17          3.8280    -0.3960    -0.5350 o          1 XJE      -0.920167
     18 O18          3.8150     1.9620     0.4770 o          1 XJE      -0.920167
     19 P15          3.1880     0.5620     0.4830 p5         1 XJE       1.127700
     20 H1          -0.8230     4.3520    -0.3710 h1         1 XJE       0.028033
     21 H2          -2.3450     3.7220    -1.0250 h1         1 XJE       0.028033
     22 H3          -2.0940     3.7970     0.7340 h1         1 XJE       0.028033
     23 H4          -3.5920     2.2210     0.0980 ha         1 XJE       0.113000
     24 H5          -5.7760     0.5130    -0.6020 hc         1 XJE       0.025033
     25 H6          -5.7370    -0.7790     0.5950 hc         1 XJE       0.025033
     26 H7          -5.5850     0.9070     1.0970 hc         1 XJE       0.025033
     27 H8          -3.7280    -2.0430     0.1620 ha         1 XJE       0.129000
     28 H9           1.9710    -1.6400    -0.4580 ha         1 XJE       0.240000
     29 H10          1.5190     1.3780    -1.1300 hc         1 XJE       0.042700
     30 H11          1.0560     1.7170     0.5030 hc         1 XJE       0.042700
@<TRIPOS>BOND
     1     1    13 1   
     2     1    20 1   
     3     1    21 1   
     4     1    22 1   
     5     2     3 ar  
     6     2    12 ar  
     7     2    13 1   
     8     3     4 ar  
     9     3    23 1   
    10     4     5 1   
    11     4     6 ar  
    12     5    24 1   
    13     5    25 1   
    14     5    26 1   
    15     6     7 ar  
    16     6    27 1   
    17     7    12 ar  
    18     7    14 1   
    19     8     9 1   
    20     8    14 1   
    21     8    15 2   
    22     9    10 2   
    23     9    28 1   
    24    10    11 1   
    25    10    12 1   
    26    11    19 1   
    27    11    29 1   
    28    11    30 1   
    29    16    19 1   
    30    17    19 1   
    31    18    19 1   
@<TRIPOS>SUBSTRUCTURE
     1 XJE         1 TEMP              0 ****  ****    0 ROOT
