@<TRIPOS>MOLECULE
XJE
   30    31     1     0     0
SMALL
No Charge or Current Charge


@<TRIPOS>ATOM
      1 C01         -1.5590     3.6960    -0.0030 c3         1 XJE       0.152900
      2 C03         -1.6910     1.2170     0.0040 ca         1 XJE       0.201100
      3 C04         -3.1070     1.2740     0.0100 ca         1 XJE      -0.270000
      4 C05         -3.8820     0.1080     0.0170 ca         1 XJE      -0.043300
      5 C06         -5.4010     0.1920     0.0200 c3         1 XJE      -0.033800
      6 C07         -3.2370    -1.1310     0.0140 ca         1 XJE      -0.187000
      7 C08         -1.8390    -1.2080     0.0080 ca         1 XJE       0.182100
      8 C10          0.0470    -2.7090    -0.0000 c          1 XJE       0.672300
      9 C12          0.9120    -1.5390    -0.0030 cc         1 XJE      -0.364200
     10 C13          0.4540    -0.2390    -0.0010 cd         1 XJE       0.136600
     11 C14          1.4340     0.9240    -0.0030 c3         1 XJE      -0.355200
     12 C19         -1.0280    -0.0490     0.0040 ca         1 XJE      -0.135800
     13 O02         -0.9600     2.3900    -0.0030 os         1 XJE      -0.288100
     14 O09         -1.2890    -2.4620     0.0060 os         1 XJE      -0.375200
     15 O11          0.4880    -3.8480    -0.0020 o          1 XJE      -0.560000
     16 O16          3.6190    -0.1250     1.2250 o          1 XJE      -0.920167
     17 O17          3.6230    -0.1240    -1.2250 o          1 XJE      -0.920167
     18 O18          3.9300     1.9670     0.0010 o          1 XJE      -0.920167
     19 P15          3.2510     0.6390    -0.0000 p5         1 XJE       1.285500
     20 H1          -0.7800     4.4690    -0.0090 h1         1 XJE       0.028033
     21 H2          -2.1850     3.8380    -0.8940 h1         1 XJE       0.028033
     22 H3          -2.1760     3.8420     0.8930 h1         1 XJE       0.028033
     23 H4          -3.6290     2.2260     0.0080 ha         1 XJE       0.095000
     24 H5          -5.7850     0.3250    -0.9980 hc         1 XJE       0.025033
     25 H6          -5.8530    -0.7180     0.4320 hc         1 XJE       0.025033
     26 H7          -5.7520     1.0360     0.6250 hc         1 XJE       0.025033
     27 H8          -3.8210    -2.0480     0.0150 ha         1 XJE       0.111000
     28 H9           1.9590    -1.8000    -0.0070 ha         1 XJE       0.290000
     29 H10          1.2670     1.5460    -0.8880 hc         1 XJE       0.042700
     30 H11          1.2660     1.5500     0.8790 hc         1 XJE       0.042700
@<TRIPOS>BOND
     1     1    13 1   
     2     1    20 1   
     3     1    21 1   
     4     1    22 1   
     5     2     3 ar  
     6     2    12 ar  
     7     2    13 1   
     8     3     4 ar  
     9     3    23 1   
    10     4     5 1   
    11     4     6 ar  
    12     5    24 1   
    13     5    25 1   
    14     5    26 1   
    15     6     7 ar  
    16     6    27 1   
    17     7    12 ar  
    18     7    14 1   
    19     8     9 1   
    20     8    14 1   
    21     8    15 2   
    22     9    10 2   
    23     9    28 1   
    24    10    11 1   
    25    10    12 1   
    26    11    19 1   
    27    11    29 1   
    28    11    30 1   
    29    16    19 1   
    30    17    19 1   
    31    18    19 1   
@<TRIPOS>SUBSTRUCTURE
     1 XJE         1 TEMP              0 ****  ****    0 ROOT
