@<TRIPOS>MOLECULE
XJG
   44    46     1     0     0
SMALL
No Charge or Current Charge


@<TRIPOS>ATOM
      1 C1          -1.7640     3.3530    -0.0850 c3         1 XJG      -0.086100
      2 C2          -2.7440     2.3480    -0.7310 c3         1 XJG       0.001600
      3 C3          -2.7500     2.4690    -2.2710 c3         1 XJG      -0.086100
      4 C4          -2.4500     0.9060    -0.2850 ca         1 XJG      -0.160300
      5 C5          -1.1840     0.3460    -0.5610 ca         1 XJG      -0.007000
      6 C6          -0.8590    -0.9660    -0.1570 ca         1 XJG      -0.303600
      7 C7           0.5010    -1.5620    -0.4280 c          1 XJG       0.638700
      8 O8           0.6060    -2.7730    -0.5930 o          1 XJG      -0.662100
      9 N9           1.6180    -0.7140    -0.5470 n          1 XJG      -0.392800
     10 C10          2.9430    -1.2810    -0.9760 c5         1 XJG       0.149300
     11 C11          3.9100    -0.4040    -0.2260 ca         1 XJG      -0.105300
     12 C12          5.3110    -0.4990    -0.2230 ca         1 XJG      -0.088000
     13 C13          6.0520     0.4130     0.5540 ca         1 XJG      -0.105500
     14 C14          5.3880     1.4010     1.3120 ca         1 XJG      -0.105500
     15 C15          3.9820     1.4790     1.2950 ca         1 XJG      -0.088000
     16 C16          3.2620     0.5590     0.5150 ca         1 XJG      -0.105300
     17 C17          1.7680     0.4800     0.3570 c5         1 XJG       0.149300
     18 C18         -1.8510    -1.7390     0.4680 ca         1 XJG       0.252100
     19 O19         -1.6000    -3.0290     0.8060 oh         1 XJG      -0.551100
     20 C20         -3.1090    -1.2040     0.7480 ca         1 XJG      -0.273000
     21 C21         -3.4180     0.1220     0.3850 ca         1 XJG       0.210100
     22 O22         -4.6600     0.6690     0.6530 os         1 XJG      -0.339100
     23 C19         -5.7010    -0.0590     1.3270 c3         1 XJG       0.146900
     24 H11C        -2.0460     4.3830    -0.3380 hc         1 XJG       0.033200
     25 H12C        -1.7800     3.2560     1.0070 hc         1 XJG       0.033200
     26 H13C        -0.7360     3.1900    -0.4290 hc         1 XJG       0.033200
     27 H2          -3.7440     2.6500    -0.3990 hc         1 XJG       0.061700
     28 H31C        -1.7610     2.2520    -2.6920 hc         1 XJG       0.033200
     29 H32C        -3.4710     1.7660    -2.7070 hc         1 XJG       0.033200
     30 H33C        -3.0370     3.4820    -2.5780 hc         1 XJG       0.033200
     31 H5          -0.4630     0.9340    -1.1200 ha         1 XJG       0.114000
     32 H101         3.0680    -2.3320    -0.6840 h1         1 XJG       0.068200
     33 H102         3.0840    -1.1950    -2.0610 h1         1 XJG       0.068200
     34 H171         1.3870     1.4010    -0.1020 h1         1 XJG       0.068200
     35 H172         1.2710     0.3300     1.3250 h1         1 XJG       0.068200
     36 H12          5.8160    -1.2650    -0.8080 ha         1 XJG       0.119000
     37 H13          7.1380     0.3550     0.5690 ha         1 XJG       0.116000
     38 H14          5.9630     2.1050     1.9100 ha         1 XJG       0.116000
     39 H15          3.4640     2.2390     1.8760 ha         1 XJG       0.119000
     40 H19         -0.7430    -3.2490     0.3550 ho         1 XJG       0.521000
     41 H20         -3.8360    -1.8380     1.2430 ha         1 XJG       0.136000
     42 H191        -6.5930     0.5700     1.4380 h1         1 XJG       0.045367
     43 H192        -5.9850    -0.9530     0.7570 h1         1 XJG       0.045367
     44 H193        -5.3770    -0.3670     2.3290 h1         1 XJG       0.045367
@<TRIPOS>BOND
     1     1     2 1   
     2     1    24 1   
     3     1    25 1   
     4     1    26 1   
     5     2     3 1   
     6     2     4 1   
     7     2    27 1   
     8     3    28 1   
     9     3    29 1   
    10     3    30 1   
    11     4     5 ar  
    12     4    21 ar  
    13     5     6 ar  
    14     5    31 1   
    15     6     7 1   
    16     6    18 ar  
    17     7     8 2   
    18     7     9 1   
    19     9    10 1   
    20     9    17 1   
    21    10    11 1   
    22    10    32 1   
    23    10    33 1   
    24    11    12 ar  
    25    11    16 ar  
    26    12    13 ar  
    27    12    36 1   
    28    13    14 ar  
    29    13    37 1   
    30    14    15 ar  
    31    14    38 1   
    32    15    16 ar  
    33    15    39 1   
    34    16    17 1   
    35    17    34 1   
    36    17    35 1   
    37    18    19 1   
    38    18    20 ar  
    39    19    40 1   
    40    20    21 ar  
    41    20    41 1   
    42    21    22 1   
    43    22    23 1   
    44    23    42 1   
    45    23    43 1   
    46    23    44 1   
@<TRIPOS>SUBSTRUCTURE
     1 XJG         1 TEMP              0 ****  ****    0 ROOT
