@<TRIPOS>MOLECULE
XJG
   44    46     1     0     0
SMALL
abcg2


@<TRIPOS>ATOM
      1 C1          -2.6470     3.2660     0.4700 c3         1 XJG      -0.086100
      2 C2          -2.7430     2.3110    -0.7240 c3         1 XJG       0.001600
      3 C3          -1.8740     2.8270    -1.8680 c3         1 XJG      -0.086100
      4 C4          -2.4140     0.8930    -0.3070 ca         1 XJG      -0.160300
      5 C5          -1.1820     0.3210    -0.5400 ca         1 XJG      -0.007000
      6 C6          -0.8390    -0.9820    -0.1540 ca         1 XJG      -0.303600
      7 C7           0.4750    -1.6130    -0.3970 c          1 XJG       0.638700
      8 O8           0.5390    -2.8510    -0.5040 o          1 XJG      -0.662100
      9 N9           1.6040    -0.8900    -0.4660 n          1 XJG      -0.392800
     10 C10          2.8800    -1.5910    -0.6410 c5         1 XJG       0.149300
     11 C11          3.8800    -0.5750    -0.1920 ca         1 XJG      -0.105300
     12 C12          5.2530    -0.7100    -0.0690 ca         1 XJG      -0.088000
     13 C13          5.9900     0.3740     0.3910 ca         1 XJG      -0.105500
     14 C14          5.3590     1.5700     0.7220 ca         1 XJG      -0.105500
     15 C15          3.9810     1.7010     0.5940 ca         1 XJG      -0.088000
     16 C16          3.2540     0.6150     0.1340 ca         1 XJG      -0.105300
     17 C17          1.7820     0.5200    -0.1180 c5         1 XJG       0.149300
     18 C18         -1.8420    -1.7690     0.4410 ca         1 XJG       0.252100
     19 O19         -1.6600    -3.0510     0.7610 oh         1 XJG      -0.551100
     20 C20         -3.0860    -1.2080     0.7250 ca         1 XJG      -0.273000
     21 C21         -3.3690     0.1020     0.3680 ca         1 XJG       0.210100
     22 O22         -4.5510     0.6830     0.6080 os         1 XJG      -0.339100
     23 C19         -5.5660    -0.0510     1.2660 c3         1 XJG       0.146900
     24 H11C        -2.9400     4.2770     0.1770 hc         1 XJG       0.033200
     25 H12C        -3.2910     2.9600     1.2940 hc         1 XJG       0.033200
     26 H13C        -1.6230     3.3110     0.8440 hc         1 XJG       0.033200
     27 H2          -3.7770     2.3240    -1.0790 hc         1 XJG       0.061700
     28 H31C        -0.8410     2.9980    -1.5560 hc         1 XJG       0.033200
     29 H32C        -1.8620     2.1420    -2.7170 hc         1 XJG       0.033200
     30 H33C        -2.2610     3.7850    -2.2170 hc         1 XJG       0.033200
     31 H5          -0.4580     0.9020    -1.0900 ha         1 XJG       0.114000
     32 H101         2.9110    -2.4950    -0.0310 h1         1 XJG       0.068200
     33 H102         3.0290    -1.8910    -1.6820 h1         1 XJG       0.068200
     34 H171         1.5020     1.1830    -0.9410 h1         1 XJG       0.068200
     35 H172         1.1820     0.7940     0.7530 h1         1 XJG       0.068200
     36 H12          5.7460    -1.6400    -0.3250 ha         1 XJG       0.119000
     37 H13          7.0640     0.2880     0.4950 ha         1 XJG       0.116000
     38 H14          5.9450     2.4060     1.0820 ha         1 XJG       0.116000
     39 H15          3.4920     2.6320     0.8510 ha         1 XJG       0.119000
     40 H19         -0.8080    -3.3220     0.3430 ho         1 XJG       0.521000
     41 H20         -3.8240    -1.8360     1.2080 ha         1 XJG       0.136000
     42 H191        -6.4190     0.6170     1.3570 h1         1 XJG       0.045367
     43 H192        -5.8670    -0.9320     0.6940 h1         1 XJG       0.045367
     44 H193        -5.2550    -0.3660     2.2650 h1         1 XJG       0.045367
@<TRIPOS>BOND
     1     1     2 1   
     2     1    24 1   
     3     1    25 1   
     4     1    26 1   
     5     2     3 1   
     6     2     4 1   
     7     2    27 1   
     8     3    28 1   
     9     3    29 1   
    10     3    30 1   
    11     4     5 ar  
    12     4    21 ar  
    13     5     6 ar  
    14     5    31 1   
    15     6     7 1   
    16     6    18 ar  
    17     7     8 2   
    18     7     9 1   
    19     9    10 1   
    20     9    17 1   
    21    10    11 1   
    22    10    32 1   
    23    10    33 1   
    24    11    12 ar  
    25    11    16 ar  
    26    12    13 ar  
    27    12    36 1   
    28    13    14 ar  
    29    13    37 1   
    30    14    15 ar  
    31    14    38 1   
    32    15    16 ar  
    33    15    39 1   
    34    16    17 1   
    35    17    34 1   
    36    17    35 1   
    37    18    19 1   
    38    18    20 ar  
    39    19    40 1   
    40    20    21 ar  
    41    20    41 1   
    42    21    22 1   
    43    22    23 1   
    44    23    42 1   
    45    23    43 1   
    46    23    44 1   
@<TRIPOS>SUBSTRUCTURE
     1 XJG         1 TEMP              0 ****  ****    0 ROOT
