@<TRIPOS>MOLECULE
XJH
   50    53     1     0     0
SMALL
No Charge or Current Charge


@<TRIPOS>ATOM
      1 N01         -5.2590     1.1250    -1.0180 nb         1 XJH      -0.756000
      2 C02         -6.4980     1.5100    -0.7510 ca         1 XJH       0.597900
      3 N02         -7.2320     1.5780    -1.8630 nv         1 XJH      -1.052900
      4 C03         -6.9880     1.8240     0.5190 ca         1 XJH      -0.229000
      5 C04         -6.1140     1.7230     1.6110 ca         1 XJH      -0.035000
      6 C05         -4.7960     1.3130     1.3530 ca         1 XJH      -0.211000
      7 C06         -4.4090     1.0240     0.0290 ca         1 XJH       0.394300
      8 C07         -2.9900     0.5710    -0.2870 c3         1 XJH      -0.112700
      9 N1          -2.6710    -3.0810     0.7280 n7         1 XJH      -0.844400
     10 O10         -0.4210    -0.7210     0.0740 os         1 XJH      -0.351100
     11 C11          0.9070    -1.0130    -0.2250 ca         1 XJH       0.167100
     12 C12          1.3440    -1.8780    -1.2630 ca         1 XJH      -0.220000
     13 C13          2.7170    -2.0980    -1.4710 ca         1 XJH      -0.051000
     14 C14          3.6640    -1.4570    -0.6580 ca         1 XJH      -0.194000
     15 C15          3.2390    -0.5850     0.3580 ca         1 XJH       0.155100
     16 C16          1.8700    -0.3760     0.5740 ca         1 XJH      -0.171000
     17 C2          -3.0390    -1.6870     1.0540 c5         1 XJH       0.151800
     18 O20          4.1460     0.0480     1.1780 os         1 XJH      -0.255200
     19 C21          5.3420     0.5560     0.7200 ca         1 XJH       0.119100
     20 C22          5.4330     1.1860    -0.5370 ca         1 XJH      -0.140500
     21 C23          6.6630     1.7100    -0.9730 ca         1 XJH      -0.089500
     22 C24          7.7990     1.6100    -0.1510 ca         1 XJH      -0.128000
     23 C25          7.7060     0.9940     1.1090 ca         1 XJH      -0.089500
     24 C26          6.4760     0.4700     1.5450 ca         1 XJH      -0.140500
     25 C3          -2.8190    -0.9740    -0.3020 c5         1 XJH      -0.078700
     26 C4          -1.3990    -1.5050    -0.6740 c5         1 XJH       0.137300
     27 C5          -1.4330    -2.9730    -0.1000 c5         1 XJH       0.119800
     28 HN02        -6.6980     1.5560    -2.7230 hn         1 XJH       0.467500
     29 HN0A        -8.0510     2.1760    -1.8510 hn         1 XJH       0.467500
     30 H03         -8.0180     2.1360     0.6560 ha         1 XJH       0.121000
     31 H04         -6.4450     1.9540     2.6220 ha         1 XJH       0.115000
     32 H05         -4.0820     1.2180     2.1660 ha         1 XJH       0.125000
     33 H07         -2.6850     0.9780    -1.2580 hc         1 XJH       0.061700
     34 H07A        -2.3060     1.0170     0.4440 hc         1 XJH       0.061700
     35 HN1         -2.4960    -3.6250     1.5840 hn         1 XJH       0.411000
     36 H12          0.6550    -2.3950    -1.9210 ha         1 XJH       0.120000
     37 H13          3.0470    -2.7690    -2.2620 ha         1 XJH       0.113000
     38 H14          4.7240    -1.6400    -0.8180 ha         1 XJH       0.130000
     39 H16          1.5490     0.2900     1.3700 ha         1 XJH       0.141000
     40 H2          -4.0780    -1.6130     1.4060 h1         1 XJH       0.051700
     41 H2'A        -2.3830    -1.2740     1.8360 h1         1 XJH       0.051700
     42 H22          4.5550     1.2750    -1.1720 ha         1 XJH       0.128000
     43 H23          6.7350     2.1940    -1.9450 ha         1 XJH       0.114500
     44 H24          8.7510     2.0160    -0.4880 ha         1 XJH       0.115000
     45 H25          8.5850     0.9220     1.7470 ha         1 XJH       0.114500
     46 H26          6.4010    -0.0050     2.5200 ha         1 XJH       0.128000
     47 H3          -3.5450    -1.3510    -1.0330 hc         1 XJH       0.082700
     48 H4          -1.2180    -1.4330    -1.7540 h1         1 XJH       0.062700
     49 H5          -0.5410    -3.1750     0.5110 h1         1 XJH       0.061700
     50 H5'A        -1.4440    -3.7160    -0.9100 h1         1 XJH       0.061700
@<TRIPOS>BOND
     1     1     2 ar  
     2     1     7 ar  
     3     2     3 1   
     4     2     4 ar  
     5     3    28 1   
     6     3    29 1   
     7     4     5 ar  
     8     4    30 1   
     9     5     6 ar  
    10     5    31 1   
    11     6     7 ar  
    12     6    32 1   
    13     7     8 1   
    14     8    25 1   
    15     8    33 1   
    16     8    34 1   
    17     9    17 1   
    18     9    27 1   
    19     9    35 1   
    20    10    11 1   
    21    10    26 1   
    22    11    12 ar  
    23    11    16 ar  
    24    12    13 ar  
    25    12    36 1   
    26    13    14 ar  
    27    13    37 1   
    28    14    15 ar  
    29    14    38 1   
    30    15    16 ar  
    31    15    18 1   
    32    16    39 1   
    33    17    25 1   
    34    17    40 1   
    35    17    41 1   
    36    18    19 1   
    37    19    20 ar  
    38    19    24 ar  
    39    20    21 ar  
    40    20    42 1   
    41    21    22 ar  
    42    21    43 1   
    43    22    23 ar  
    44    22    44 1   
    45    23    24 ar  
    46    23    45 1   
    47    24    46 1   
    48    25    26 1   
    49    25    47 1   
    50    26    27 1   
    51    26    48 1   
    52    27    49 1   
    53    27    50 1   
@<TRIPOS>SUBSTRUCTURE
     1 XJH         1 TEMP              0 ****  ****    0 ROOT
