@<TRIPOS>MOLECULE
XJI
   43    45     1     0     0
SMALL
abcg2


@<TRIPOS>ATOM
      1 N1         -24.0230   -17.3270     2.0590 nc         1 XJI      -0.508800
      2 C7         -24.8210   -16.7420    -2.9010 ca         1 XJI       0.155000
      3 C8         -25.7700   -16.8410    -1.8930 ca         1 XJI      -0.126000
      4 C9         -25.3670   -17.2590    -0.6320 ca         1 XJI      -0.048000
      5 O1         -18.5470   -20.3570    -1.3120 o          1 XJI      -0.591100
      6 C1         -22.8060   -19.1100     1.3710 cd         1 XJI      -0.246600
      7 C5         -23.1280   -17.4530    -1.4010 ca         1 XJI       0.214000
      8 C6         -23.4860   -17.0440    -2.6710 ca         1 XJI      -0.146000
      9 N3         -17.5410   -19.9240     0.6650 nt         1 XJI      -0.610000
     10 C4         -24.0370   -17.5820    -0.3550 ca         1 XJI      -0.156500
     11 C3         -23.6250   -18.0120     0.9880 cd         1 XJI       0.364500
     12 C2         -22.7480   -19.0370     2.7530 cc         1 XJI      -0.139000
     13 C17        -18.9930   -21.8660     0.5020 c3         1 XJI      -0.171400
     14 C10        -20.5060   -21.8820     0.2620 c3         1 XJI       0.175000
     15 C11        -21.1120   -23.2040     0.6970 ca         1 XJI      -0.107300
     16 C16        -21.2010   -24.2560    -0.2130 ca         1 XJI      -0.065000
     17 C15        -21.7050   -25.4910     0.1730 ca         1 XJI      -0.138000
     18 C14        -22.1260   -25.6660     1.4780 ca         1 XJI       0.179000
     19 F1         -22.6190   -26.8620     1.8600 f          1 XJI      -0.163000
     20 C13        -22.0550   -24.6280     2.3970 ca         1 XJI       0.074000
     21 CL1        -22.6080   -24.8770     4.0280 cl         1 XJI      -0.181000
     22 C12        -21.5460   -23.3980     2.0040 ca         1 XJI      -0.071000
     23 C          -22.2590   -20.1700     0.5020 c          1 XJI       0.652700
     24 O          -22.8230   -20.5190    -0.5360 o          1 XJI      -0.581100
     25 N          -23.4850   -17.9730     3.1100 na         1 XJI      -0.003200
     26 F          -21.8210   -17.7120    -1.1730 f          1 XJI      -0.168000
     27 H1         -23.6620   -17.6380     4.0450 hn         1 XJI       0.379000
     28 H2         -26.8050   -16.6030    -2.0900 ha         1 XJI       0.134000
     29 H3         -20.6800   -20.3930     1.7740 hn         1 XJI       0.306500
     30 H4         -26.0990   -17.3510     0.1590 ha         1 XJI       0.129000
     31 H5         -22.7380   -16.9570    -3.4460 ha         1 XJI       0.150000
     32 H6         -17.0600   -19.1190     0.2920 hn         1 XJI       0.315500
     33 H7         -17.3900   -20.1690     1.6290 hn         1 XJI       0.315500
     34 H8         -22.2700   -19.6700     3.4830 h4         1 XJI       0.154000
     35 H9         -18.5560   -22.7500     0.0320 hc         1 XJI       0.065700
     36 H10        -18.7810   -21.9230     1.5710 hc         1 XJI       0.065700
     37 H11        -20.6830   -21.7630    -0.8050 h1         1 XJI       0.111700
     38 H12        -20.8740   -24.1100    -1.2350 ha         1 XJI       0.131000
     39 H13        -21.7820   -26.3150    -0.5240 ha         1 XJI       0.140000
     40 H14        -21.4980   -22.5950     2.7270 ha         1 XJI       0.121000
     41 CL         -25.3080   -16.2260    -4.4970 cl         1 XJI      -0.202000
     42 N2         -21.1070   -20.7380     0.9280 ns         1 XJI      -0.511900
     43 C18        -18.3450   -20.6460    -0.1340 c          1 XJI       0.599100
@<TRIPOS>BOND
     1     1    11 2   
     2     1    25 1   
     3     2     3 ar  
     4     2     8 ar  
     5     2    41 1   
     6     3     4 ar  
     7     3    28 1   
     8     4    10 ar  
     9     4    30 1   
    10     5    43 2   
    11     6    11 1   
    12     6    12 2   
    13     6    23 1   
    14     7     8 ar  
    15     7    10 ar  
    16     7    26 1   
    17     8    31 1   
    18     9    32 1   
    19     9    33 1   
    20     9    43 1   
    21    10    11 1   
    22    12    25 1   
    23    12    34 1   
    24    13    14 1   
    25    13    35 1   
    26    13    36 1   
    27    13    43 1   
    28    14    15 1   
    29    14    37 1   
    30    14    42 1   
    31    15    16 ar  
    32    15    22 ar  
    33    16    17 ar  
    34    16    38 1   
    35    17    18 ar  
    36    17    39 1   
    37    18    19 1   
    38    18    20 ar  
    39    20    21 1   
    40    20    22 ar  
    41    22    40 1   
    42    23    24 2   
    43    23    42 1   
    44    25    27 1   
    45    29    42 1   
@<TRIPOS>SUBSTRUCTURE
     1 XJI         1 TEMP              0 ****  ****    0 ROOT
