@<TRIPOS>MOLECULE
XJI
   43    45     1     0     0
SMALL
No Charge or Current Charge


@<TRIPOS>ATOM
      1 N1         -24.1880   -17.4320     1.9760 nc         1 XJI      -0.508800
      2 C7         -24.1440   -16.1830    -2.9330 ca         1 XJI       0.155000
      3 C8         -25.2620   -16.6350    -2.2140 ca         1 XJI      -0.126000
      4 C9         -25.0940   -17.2280    -0.9500 ca         1 XJI      -0.048000
      5 O1         -18.8870   -20.6410    -1.8040 o          1 XJI      -0.591100
      6 C1         -22.9190   -19.1700     1.2360 cd         1 XJI      -0.246600
      7 C5         -22.6900   -16.9070    -1.1290 ca         1 XJI       0.214000
      8 C6         -22.8580   -16.3140    -2.3890 ca         1 XJI      -0.146000
      9 N3         -18.7800   -19.4480     0.0790 nt         1 XJI      -0.610000
     10 C4         -23.8020   -17.3820    -0.4060 ca         1 XJI      -0.156500
     11 C3         -23.6270   -17.9880     0.9170 cd         1 XJI       0.364500
     12 C2         -23.0140   -19.3380     2.5980 cc         1 XJI      -0.139000
     13 C17        -19.2930   -21.8330     0.2600 c3         1 XJI      -0.171400
     14 C10        -20.8020   -22.1640     0.2620 c3         1 XJI       0.175000
     15 C11        -21.0940   -23.5170     0.9090 ca         1 XJI      -0.107300
     16 C16        -21.7880   -24.5080     0.1840 ca         1 XJI      -0.065000
     17 C15        -22.0680   -25.7540     0.7720 ca         1 XJI      -0.138000
     18 C14        -21.6600   -26.0170     2.0890 ca         1 XJI       0.179000
     19 F1         -21.9370   -27.2200     2.6430 f          1 XJI      -0.163000
     20 C13        -20.9720   -25.0340     2.8240 ca         1 XJI       0.074000
     21 Cl1        -20.4560   -25.3430     4.4820 cl         1 XJI      -0.181000
     22 C12        -20.6920   -23.7880     2.2360 ca         1 XJI      -0.071000
     23 C          -22.2240   -20.0850     0.3010 c          1 XJI       0.652700
     24 O          -22.2180   -19.9570    -0.9120 o          1 XJI      -0.581100
     25 N          -23.7980   -18.2640     3.0110 na         1 XJI      -0.003200
     26 F          -21.4470   -16.9920    -0.6030 f          1 XJI      -0.168000
     27 H1         -24.0860   -18.0750     3.9710 hn         1 XJI       0.379000
     28 H2         -26.2580   -16.5240    -2.6350 ha         1 XJI       0.134000
     29 H3         -21.6630   -21.1610     1.9380 hn         1 XJI       0.306500
     30 H4         -25.9650   -17.5740    -0.3960 ha         1 XJI       0.129000
     31 H5         -21.9940   -15.9520    -2.9380 ha         1 XJI       0.150000
     32 H6         -18.5700   -18.6080    -0.4410 hn         1 XJI       0.315500
     33 H7         -18.8520   -19.4240     1.0850 hn         1 XJI       0.315500
     34 H8         -22.6390   -20.0920     3.2800 h4         1 XJI       0.154000
     35 H9         -18.7550   -22.6910    -0.1590 hc         1 XJI       0.065700
     36 H10        -18.9760   -21.6580     1.2940 hc         1 XJI       0.065700
     37 H11        -21.1280   -22.2190    -0.7880 h1         1 XJI       0.111700
     38 H12        -22.1130   -24.3160    -0.8370 ha         1 XJI       0.131000
     39 H13        -22.6020   -26.5160     0.2090 ha         1 XJI       0.140000
     40 H14        -20.1640   -23.0360     2.8170 ha         1 XJI       0.121000
     41 Cl         -24.3570   -15.4390    -4.5120 cl         1 XJI      -0.202000
     42 N2         -21.5790   -21.1230     0.9330 ns         1 XJI      -0.511900
     43 C18        -18.9830   -20.6040    -0.5890 c          1 XJI       0.599100
@<TRIPOS>BOND
     1     1    11 2   
     2     1    25 1   
     3     2     3 ar  
     4     2     8 ar  
     5     2    41 1   
     6     3     4 ar  
     7     3    28 1   
     8     4    10 ar  
     9     4    30 1   
    10     5    43 2   
    11     6    11 1   
    12     6    12 2   
    13     6    23 1   
    14     7     8 ar  
    15     7    10 ar  
    16     7    26 1   
    17     8    31 1   
    18     9    32 1   
    19     9    33 1   
    20     9    43 1   
    21    10    11 1   
    22    12    25 1   
    23    12    34 1   
    24    13    14 1   
    25    13    35 1   
    26    13    36 1   
    27    13    43 1   
    28    14    15 1   
    29    14    37 1   
    30    14    42 1   
    31    15    16 ar  
    32    15    22 ar  
    33    16    17 ar  
    34    16    38 1   
    35    17    18 ar  
    36    17    39 1   
    37    18    19 1   
    38    18    20 ar  
    39    20    21 1   
    40    20    22 ar  
    41    22    40 1   
    42    23    24 2   
    43    23    42 1   
    44    25    27 1   
    45    29    42 1   
@<TRIPOS>SUBSTRUCTURE
     1 XJI         1 TEMP              0 ****  ****    0 ROOT
