@<TRIPOS>MOLECULE
XJJ
   15    15     1     0     0
SMALL
bcc


@<TRIPOS>ATOM
      1 O01          6.6240    37.8890   -35.4770 o          1 XJJ      -0.639500
      2 C02          7.5480    37.1890   -35.8710 c          1 XJJ       0.674500
      3 C03          8.8710    37.1580   -35.1220 c6         1 XJJ       0.065800
      4 N04          9.9890    36.5280   -35.7910 n7         1 XJJ      -0.785200
      5 C05          9.5720    35.3050   -36.4480 c6         1 XJJ       0.134800
      6 C06          8.5000    35.5550   -37.4940 c6         1 XJJ       0.073000
      7 N07          7.4440    36.3850   -36.9410 ns         1 XJJ      -0.581900
      8 H031         9.1300    38.1860   -34.8630 h1         1 XJJ       0.082700
      9 H032         8.6780    36.6450   -34.1730 h1         1 XJJ       0.082700
     10 H041        10.3780    37.1630   -36.4780 hn         1 XJJ       0.357800
     11 H051        10.4320    34.8260   -36.9180 h1         1 XJJ       0.066200
     12 H052         9.1970    34.6150   -35.6860 h1         1 XJJ       0.066200
     13 H061         8.9410    36.0410   -38.3700 h1         1 XJJ       0.043700
     14 H062         8.0670    34.6120   -37.8310 h1         1 XJJ       0.043700
     15 H071         6.5730    36.4280   -37.4510 hn         1 XJJ       0.316500
@<TRIPOS>BOND
     1     1     2 2   
     2     2     3 1   
     3     2     7 1   
     4     3     4 1   
     5     3     8 1   
     6     3     9 1   
     7     4     5 1   
     8     4    10 1   
     9     5     6 1   
    10     5    11 1   
    11     5    12 1   
    12     6     7 1   
    13     6    13 1   
    14     6    14 1   
    15     7    15 1   
@<TRIPOS>SUBSTRUCTURE
     1 XJJ         1 TEMP              0 ****  ****    0 ROOT
