@<TRIPOS>MOLECULE
XJJ
   15    15     1     0     0
SMALL
No Charge or Current Charge


@<TRIPOS>ATOM
      1 O01          6.6540    38.0470   -35.6050 o          1 XJJ      -0.564000
      2 C02          7.5460    37.2600   -35.8840 c          1 XJJ       0.532000
      3 C03          8.8600    37.1470   -35.0430 c6         1 XJJ       0.065800
      4 N04         10.0280    36.5700   -35.7990 n7         1 XJJ      -0.840400
      5 C05          9.6440    35.2960   -36.4620 c6         1 XJJ       0.134800
      6 C06          8.4720    35.5010   -37.4660 c6         1 XJJ       0.073000
      7 N07          7.4240    36.4230   -36.9750 ns         1 XJJ      -0.514900
      8 H031         9.1010    38.1510   -34.6660 h1         1 XJJ       0.082700
      9 H032         8.6200    36.5070   -34.1810 h1         1 XJJ       0.082700
     10 H041        10.3060    37.2370   -36.5330 hn         1 XJJ       0.413000
     11 H051        10.5080    34.8650   -36.9900 h1         1 XJJ       0.066200
     12 H052         9.3350    34.5680   -35.6970 h1         1 XJJ       0.066200
     13 H061         8.8710    35.9200   -38.4010 h1         1 XJJ       0.043700
     14 H062         8.0150    34.5310   -37.7070 h1         1 XJJ       0.043700
     15 H071         6.5630    36.5040   -37.5040 hn         1 XJJ       0.316500
@<TRIPOS>BOND
     1     1     2 2   
     2     2     3 1   
     3     2     7 1   
     4     3     4 1   
     5     3     8 1   
     6     3     9 1   
     7     4     5 1   
     8     4    10 1   
     9     5     6 1   
    10     5    11 1   
    11     5    12 1   
    12     6     7 1   
    13     6    13 1   
    14     6    14 1   
    15     7    15 1   
@<TRIPOS>SUBSTRUCTURE
     1 XJJ         1 TEMP              0 ****  ****    0 ROOT
