@<TRIPOS>MOLECULE
XJM
   10    10     1     0     0
SMALL
abcg2


@<TRIPOS>ATOM
      1 C01        -16.3190    22.2560    -7.3820 c3         1 XJM      -0.130400
      2 C02        -17.3940    21.4520    -6.7610 cc         1 XJM       0.397800
      3 N03        -17.8500    21.5400    -5.5330 nd         1 XJM      -0.387000
      4 N04        -18.8150    20.6260    -5.4210 nd         1 XJM      -0.042000
      5 N05        -18.9710    19.9860    -6.5110 nc         1 XJM      -0.202800
      6 N06        -18.0920    20.4870    -7.3630 na         1 XJM      -0.220700
      7 H012       -15.8930    22.9330    -6.6470 hc         1 XJM       0.066700
      8 H013       -15.5270    21.6170    -7.7690 hc         1 XJM       0.066700
      9 H011       -16.7070    22.8460    -8.2130 hc         1 XJM       0.066700
     10 H061       -18.0250    20.1350    -8.3090 hn         1 XJM       0.385000
@<TRIPOS>BOND
     1     1     2 1   
     2     1     7 1   
     3     1     8 1   
     4     1     9 1   
     5     2     3 2   
     6     2     6 1   
     7     3     4 1   
     8     4     5 2   
     9     5     6 1   
    10     6    10 1   
@<TRIPOS>SUBSTRUCTURE
     1 XJM         1 TEMP              0 ****  ****    0 ROOT
