@<TRIPOS>MOLECULE
XJM
   10    10     1     0     0
SMALL
No Charge or Current Charge


@<TRIPOS>ATOM
      1 C01        -16.3040    22.2680    -7.3870 c3         1 XJM      -0.130400
      2 C02        -17.3930    21.4520    -6.7570 cc         1 XJM       0.397800
      3 N03        -17.8280    21.5370    -5.5180 nd         1 XJM      -0.387000
      4 N04        -18.8280    20.6000    -5.3910 nd         1 XJM      -0.042000
      5 N05        -19.0210    19.9450    -6.5050 nc         1 XJM      -0.202800
      6 N06        -18.1210    20.4760    -7.3690 na         1 XJM      -0.220700
      7 H012       -15.8840    22.9820    -6.6700 hc         1 XJM       0.066700
      8 H013       -15.4910    21.6220    -7.7390 hc         1 XJM       0.066700
      9 H011       -16.6890    22.8320    -8.2430 hc         1 XJM       0.066700
     10 H061       -18.0340    20.1620    -8.3290 hn         1 XJM       0.385000
@<TRIPOS>BOND
     1     1     2 1   
     2     1     7 1   
     3     1     8 1   
     4     1     9 1   
     5     2     3 2   
     6     2     6 1   
     7     3     4 1   
     8     4     5 2   
     9     5     6 1   
    10     6    10 1   
@<TRIPOS>SUBSTRUCTURE
     1 XJM         1 TEMP              0 ****  ****    0 ROOT
