@<TRIPOS>MOLECULE
XJN
   58    59     1     0     0
SMALL
No Charge or Current Charge


@<TRIPOS>ATOM
      1 C1          -6.7760     2.1170     9.2770 ca         1 XJN       0.386900
      2 C3          -6.3650     2.2780    11.9160 ca         1 XJN      -0.116900
      3 N4          -6.9850     3.3170     9.8360 nb         1 XJN      -0.269000
      4 O2          -8.1120     3.7860    16.0230 os         1 XJN      -0.348100
      5 O3         -13.6330     2.5040    15.8750 o          1 XJN      -0.741500
      6 C4          -7.0060     1.6680    14.1980 c3         1 XJN       0.148600
      7 C2          -6.1660     1.0760    11.1950 ca         1 XJN       0.386900
      8 N2          -6.3710     0.9920     9.8750 nb         1 XJN      -0.323000
      9 N1          -6.9850     2.0330     7.9430 nv         1 XJN      -1.045900
     10 C8          -7.7300     6.1110    16.6620 ca         1 XJN      -0.204000
     11 C5          -6.5450     1.9950    15.6330 c3         1 XJN      -0.074400
     12 C6          -6.7070     3.4780    16.0220 c3         1 XJN       0.166600
     13 C10         -9.6140     7.6380    16.7450 ca         1 XJN      -0.152000
     14 C11        -10.4800     6.5970    16.3720 ca         1 XJN      -0.087000
     15 C12         -9.9810     5.2950    16.1340 ca         1 XJN      -0.068300
     16 C13        -10.8940     4.1330    15.7060 c3         1 XJN      -0.018100
     17 C14        -12.3850     4.4780    15.4580 c3         1 XJN      -0.206400
     18 C15        -13.1460     3.2190    15.0130 c          1 XJN       0.709000
     19 C16         -6.7740     3.4060    11.1660 ca         1 XJN       0.189300
     20 C17         -7.0210     4.7710    11.8010 c3         1 XJN      -0.135700
     21 C18         -8.4810     4.9350    12.2850 c3         1 XJN      -0.066400
     22 C19         -8.7740     6.2770    12.9950 c3         1 XJN      -0.083400
     23 C20         -8.6920     7.5260    12.0890 c3         1 XJN      -0.072400
     24 C21         -9.0640     8.8230    12.8330 c3         1 XJN      -0.090100
     25 C7          -8.5920     5.0570    16.2800 ca         1 XJN       0.120100
     26 C9          -8.2420     7.3960    16.8910 ca         1 XJN      -0.104000
     27 O1          -6.1500     2.3760    13.2810 os         1 XJN      -0.373100
     28 O4         -13.1900     2.9630    13.8190 o          1 XJN      -0.741500
     29 H2          -8.0530     1.9700    14.0650 h1         1 XJN       0.054700
     30 H3          -6.9450     0.5840    14.0410 h1         1 XJN       0.054700
     31 H4          -5.3590    -0.8000    11.1500 hn         1 XJN       0.485000
     32 H5          -5.2500     0.0090    12.6720 hn         1 XJN       0.485000
     33 H6          -7.0820     2.8940     7.4110 hn         1 XJN       0.475500
     34 H7          -6.6410     1.2160     7.4450 hn         1 XJN       0.475500
     35 H8          -6.6620     5.9530    16.7800 ha         1 XJN       0.101000
     36 H9          -7.1110     1.3780    16.3410 hc         1 XJN       0.054700
     37 H10         -5.4920     1.7110    15.7440 hc         1 XJN       0.054700
     38 H11         -6.2790     3.6380    17.0200 h1         1 XJN       0.033200
     39 H12         -6.1680     4.1120    15.3050 h1         1 XJN       0.033200
     40 H13        -10.0100     8.6350    16.9220 ha         1 XJN       0.101000
     41 H14        -11.5380     6.8220    16.2680 ha         1 XJN       0.127000
     42 H15        -10.8450     3.3440    16.4680 hc         1 XJN       0.061700
     43 H16        -10.4940     3.6870    14.7870 hc         1 XJN       0.061700
     44 H17        -12.3930     5.2300    14.6600 hc         1 XJN       0.020700
     45 H18        -12.7780     4.8370    16.4180 hc         1 XJN       0.020700
     46 H19         -6.3420     4.9210    12.6480 hc         1 XJN       0.057700
     47 H20         -6.7830     5.5610    11.0790 hc         1 XJN       0.057700
     48 H21         -9.1640     4.8190    11.4340 hc         1 XJN       0.057700
     49 H22         -8.7110     4.1200    12.9820 hc         1 XJN       0.057700
     50 H23         -9.7810     6.2250    13.4250 hc         1 XJN       0.058200
     51 H24         -8.0790     6.3980    13.8340 hc         1 XJN       0.058200
     52 H25         -7.6760     7.6310    11.6900 hc         1 XJN       0.027200
     53 H26         -9.3640     7.4000    11.2310 hc         1 XJN       0.027200
     54 H27         -8.9910     9.6850    12.1600 hc         1 XJN       0.029367
     55 H28        -10.0910     8.7700    13.2150 hc         1 XJN       0.029367
     56 H29         -8.3890     8.9900    13.6810 hc         1 XJN       0.029367
     57 H30         -7.5750     8.2050    17.1810 ha         1 XJN       0.094000
     58 N3          -5.7030    -0.0690    11.7660 nv         1 XJN      -1.066900
@<TRIPOS>BOND
     1     1     3 ar  
     2     1     8 ar  
     3     1     9 1   
     4     2     7 ar  
     5     2    19 ar  
     6     2    27 1   
     7     3    19 ar  
     8     4    12 1   
     9     4    25 1   
    10     5    18 1   
    11     6    11 1   
    12     6    27 1   
    13     6    29 1   
    14     6    30 1   
    15     7     8 ar  
    16     7    58 1   
    17     9    33 1   
    18     9    34 1   
    19    10    25 ar  
    20    10    26 ar  
    21    10    35 1   
    22    11    12 1   
    23    11    36 1   
    24    11    37 1   
    25    12    38 1   
    26    12    39 1   
    27    13    14 ar  
    28    13    26 ar  
    29    13    40 1   
    30    14    15 ar  
    31    14    41 1   
    32    15    16 1   
    33    15    25 ar  
    34    16    17 1   
    35    16    42 1   
    36    16    43 1   
    37    17    18 1   
    38    17    44 1   
    39    17    45 1   
    40    18    28 1   
    41    19    20 1   
    42    20    21 1   
    43    20    46 1   
    44    20    47 1   
    45    21    22 1   
    46    21    48 1   
    47    21    49 1   
    48    22    23 1   
    49    22    50 1   
    50    22    51 1   
    51    23    24 1   
    52    23    52 1   
    53    23    53 1   
    54    24    54 1   
    55    24    55 1   
    56    24    56 1   
    57    26    57 1   
    58    31    58 1   
    59    32    58 1   
@<TRIPOS>SUBSTRUCTURE
     1 XJN         1 TEMP              0 ****  ****    0 ROOT
