@<TRIPOS>MOLECULE
XJN
   58    59     1     0     0
SMALL
abcg2


@<TRIPOS>ATOM
      1 C1          -6.6870     2.1690     9.3140 ca         1 XJN       0.386900
      2 C3          -6.2660     2.3060    11.9440 ca         1 XJN      -0.116900
      3 N4          -7.0950     3.2750     9.9380 nb         1 XJN      -0.269000
      4 O2          -8.0520     3.7840    16.0140 os         1 XJN      -0.348100
      5 O3         -14.2530     4.1200    14.6740 o          1 XJN      -0.741500
      6 C4          -7.0220     1.7510    14.1240 c3         1 XJN       0.148600
      7 C2          -5.8290     1.1960    11.1870 ca         1 XJN       0.386900
      8 N2          -6.0460     1.1310     9.8720 nb         1 XJN      -0.323000
      9 N1          -6.9750     2.0610     7.9780 nv         1 XJN      -1.045900
     10 C8          -7.4450     6.0000    16.7930 ca         1 XJN      -0.204000
     11 C5          -6.6280     1.9340    15.5750 c3         1 XJN      -0.074400
     12 C6          -6.6820     3.3740    16.0470 c3         1 XJN       0.166600
     13 C10         -9.2030     7.6340    17.0150 ca         1 XJN      -0.152000
     14 C11        -10.1250     6.6840    16.5730 ca         1 XJN      -0.087000
     15 C12         -9.7410     5.3920    16.2340 ca         1 XJN      -0.068300
     16 C13        -10.6950     4.3470    15.7100 c3         1 XJN      -0.018100
     17 C14        -12.1100     4.8220    15.4210 c3         1 XJN      -0.206400
     18 C15        -13.0480     3.7690    14.7940 c          1 XJN       0.709000
     19 C16         -6.8840     3.3400    11.2690 ca         1 XJN       0.189300
     20 C17         -7.3460     4.5830    11.9710 c3         1 XJN      -0.135700
     21 C18         -8.8770     4.7080    12.0080 c3         1 XJN      -0.066400
     22 C19         -9.3580     5.9570    12.7450 c3         1 XJN      -0.083400
     23 C20         -9.0260     7.2790    12.0550 c3         1 XJN      -0.072400
     24 C21         -9.5380     8.4850    12.8410 c3         1 XJN      -0.090100
     25 C7          -8.3760     5.0610    16.3570 ca         1 XJN       0.120100
     26 C9          -7.8650     7.2890    17.1210 ca         1 XJN      -0.104000
     27 O1          -5.9990     2.3470    13.2970 os         1 XJN      -0.373100
     28 O4         -12.5670     2.6640    14.4360 o          1 XJN      -0.741500
     29 H2          -7.9780     2.2330    13.9100 h1         1 XJN       0.054700
     30 H3          -7.1080     0.6890    13.8810 h1         1 XJN       0.054700
     31 H4          -4.7190    -0.5040    11.2000 hn         1 XJN       0.485000
     32 H5          -4.8180     0.3090    12.7130 hn         1 XJN       0.485000
     33 H6          -7.1960     2.9200     7.4990 hn         1 XJN       0.475500
     34 H7          -6.4320     1.3940     7.4530 hn         1 XJN       0.475500
     35 H8          -6.4000     5.7420    16.8780 ha         1 XJN       0.101000
     36 H9          -7.2940     1.3290    16.1950 hc         1 XJN       0.054700
     37 H10         -5.6140     1.5550    15.7240 hc         1 XJN       0.054700
     38 H11         -6.2970     3.4560    17.0680 h1         1 XJN       0.033200
     39 H12         -6.0870     4.0240    15.4000 h1         1 XJN       0.033200
     40 H13         -9.5340     8.6330    17.2660 ha         1 XJN       0.101000
     41 H14        -11.1640     6.9670    16.4780 ha         1 XJN       0.127000
     42 H15        -10.7270     3.5090    16.4150 hc         1 XJN       0.061700
     43 H16        -10.2680     3.9220    14.7990 hc         1 XJN       0.061700
     44 H17        -12.0880     5.6710    14.7300 hc         1 XJN       0.020700
     45 H18        -12.5950     5.1910    16.3280 hc         1 XJN       0.020700
     46 H19         -6.9560     4.5990    12.9880 hc         1 XJN       0.057700
     47 H20         -6.9220     5.4390    11.4400 hc         1 XJN       0.057700
     48 H21         -9.2620     4.7060    10.9840 hc         1 XJN       0.057700
     49 H22         -9.2870     3.8210    12.5000 hc         1 XJN       0.057700
     50 H23        -10.4430     5.8920    12.8740 hc         1 XJN       0.058200
     51 H24         -8.9350     5.9630    13.7530 hc         1 XJN       0.058200
     52 H25         -7.9440     7.3700    11.9230 hc         1 XJN       0.027200
     53 H26         -9.4600     7.2800    11.0500 hc         1 XJN       0.027200
     54 H27         -9.2940     9.4240    12.3400 hc         1 XJN       0.029367
     55 H28        -10.6230     8.4410    12.9630 hc         1 XJN       0.029367
     56 H29         -9.0960     8.5110    13.8410 hc         1 XJN       0.029367
     57 H30         -7.1350     8.0150    17.4580 ha         1 XJN       0.094000
     58 N3          -5.1940     0.1610    11.7900 nv         1 XJN      -1.066900
@<TRIPOS>BOND
     1     1     3 ar  
     2     1     8 ar  
     3     1     9 1   
     4     2     7 ar  
     5     2    19 ar  
     6     2    27 1   
     7     3    19 ar  
     8     4    12 1   
     9     4    25 1   
    10     5    18 1   
    11     6    11 1   
    12     6    27 1   
    13     6    29 1   
    14     6    30 1   
    15     7     8 ar  
    16     7    58 1   
    17     9    33 1   
    18     9    34 1   
    19    10    25 ar  
    20    10    26 ar  
    21    10    35 1   
    22    11    12 1   
    23    11    36 1   
    24    11    37 1   
    25    12    38 1   
    26    12    39 1   
    27    13    14 ar  
    28    13    26 ar  
    29    13    40 1   
    30    14    15 ar  
    31    14    41 1   
    32    15    16 1   
    33    15    25 ar  
    34    16    17 1   
    35    16    42 1   
    36    16    43 1   
    37    17    18 1   
    38    17    44 1   
    39    17    45 1   
    40    18    28 1   
    41    19    20 1   
    42    20    21 1   
    43    20    46 1   
    44    20    47 1   
    45    21    22 1   
    46    21    48 1   
    47    21    49 1   
    48    22    23 1   
    49    22    50 1   
    50    22    51 1   
    51    23    24 1   
    52    23    52 1   
    53    23    53 1   
    54    24    54 1   
    55    24    55 1   
    56    24    56 1   
    57    26    57 1   
    58    31    58 1   
    59    32    58 1   
@<TRIPOS>SUBSTRUCTURE
     1 XJN         1 TEMP              0 ****  ****    0 ROOT
