@<TRIPOS>MOLECULE
XJO
   72    73     1     0     0
SMALL
No Charge or Current Charge


@<TRIPOS>ATOM
      1 O4           0.7650     0.4310     3.3700 o          1 XJO      -0.520100
      2 C26          1.2810    -0.4320     2.6710 c          1 XJO       0.576300
      3 C            2.4890    -0.1110     1.8440 ce         1 XJO      -0.310200
      4 C24          0.7130    -1.8800     2.6660 c3         1 XJO      -0.153700
      5 C25          1.7730    -2.9350     3.0780 c3         1 XJO      -0.083100
      6 C23         -0.2050    -2.2880     1.4490 c3         1 XJO      -0.067400
      7 C21          0.3350    -2.3860    -0.0210 c3         1 XJO      -0.054700
      8 C22          1.5480    -3.3430    -0.1500 c3         1 XJO      -0.088100
      9 C10          0.5050    -0.9860    -0.6990 c3         1 XJO       0.171300
     10 C8           1.3420    -0.9010    -2.0110 c3         1 XJO      -0.131700
     11 C9           0.6110    -1.3340    -3.3080 c3         1 XJO      -0.071100
     12 C7           1.9430     0.5070    -2.0750 c          1 XJO       0.601100
     13 O1           1.3110     1.4950    -2.4220 o          1 XJO      -0.477000
     14 O            3.0620     0.5430    -1.2800 os         1 XJO      -0.467100
     15 C4           3.5820     1.7990    -0.8060 c3         1 XJO       0.190300
     16 C5           4.6950     2.2880    -1.7750 c3         1 XJO      -0.091400
     17 C6           4.2000     2.7250    -3.1710 c3         1 XJO      -0.088100
     18 C2           4.0680     1.5600     0.6610 c3         1 XJO      -0.040500
     19 C3           5.2640     0.5780     0.7830 c3         1 XJO      -0.083100
     20 C1           2.9090     1.1530     1.5710 c2         1 XJO      -0.138200
     21 O2          -0.8170    -0.4840    -0.9930 os         1 XJO      -0.444100
     22 C11         -1.2960     0.6250    -0.3340 c          1 XJO       0.635700
     23 O3          -0.6220     1.3190     0.4170 o          1 XJO      -0.478000
     24 C12         -2.6530     1.0460    -0.8350 ca         1 XJO      -0.100600
     25 C17         -3.6880     1.4280     0.0590 ca         1 XJO      -0.039300
     26 C18         -3.4970     1.3740     1.5770 c3         1 XJO       0.201100
     27 N           -3.2560     0.0030     2.0940 n3         1 XJO      -0.719600
     28 C20         -2.8500    -0.0040     3.5150 c3         1 XJO       0.146600
     29 C19         -4.3660    -0.9370     1.8170 c3         1 XJO       0.146600
     30 C16         -4.9390     1.8220    -0.4590 ca         1 XJO      -0.120000
     31 C15         -5.1690     1.8390    -1.8440 ca         1 XJO      -0.093000
     32 C14         -4.1490     1.4550    -2.7270 ca         1 XJO      -0.120000
     33 C13         -2.9000     1.0580    -2.2250 ca         1 XJO      -0.069000
     34 H            2.9800    -0.9580     1.3780 ha         1 XJO       0.184000
     35 H24          0.0040    -1.8770     3.5040 hc         1 XJO       0.061700
     36 H1           2.3790     2.0070     2.0040 ha         1 XJO       0.199000
     37 H251         2.1710    -2.6990     4.0730 hc         1 XJO       0.036367
     38 H252         1.3260    -3.9350     3.1280 hc         1 XJO       0.036367
     39 H253         2.6220    -2.9730     2.3890 hc         1 XJO       0.036367
     40 H231        -0.6380    -3.2670     1.6940 hc         1 XJO       0.056700
     41 H232        -1.0650    -1.6080     1.4450 hc         1 XJO       0.056700
     42 H21         -0.4640    -2.8840    -0.5860 hc         1 XJO       0.061700
     43 H221         1.4080    -4.2370     0.4690 hc         1 XJO       0.036700
     44 H222         1.6600    -3.6850    -1.1860 hc         1 XJO       0.036700
     45 H223         2.4820    -2.8540     0.1440 hc         1 XJO       0.036700
     46 H10          1.0070    -0.3450     0.0210 h1         1 XJO       0.078700
     47 H8           2.2080    -1.5580    -1.8920 hc         1 XJO       0.081700
     48 H91C        -0.2150    -0.6550    -3.5490 hc         1 XJO       0.045367
     49 H92C         1.3060    -1.3320    -4.1560 hc         1 XJO       0.045367
     50 H93C         0.2050    -2.3470    -3.2030 hc         1 XJO       0.045367
     51 H4           2.7940     2.5640    -0.7570 h1         1 XJO       0.071700
     52 H51C         5.2100     3.1390    -1.3130 hc         1 XJO       0.048200
     53 H52C         5.4450     1.4990    -1.9040 hc         1 XJO       0.048200
     54 HA           4.4340     2.5280     1.0240 hc         1 XJO       0.063700
     55 H61C         5.0290     3.1460    -3.7520 hc         1 XJO       0.039033
     56 H62C         3.7970     1.8730    -3.7300 hc         1 XJO       0.039033
     57 H63C         3.4190     3.4900    -3.0850 hc         1 XJO       0.039033
     58 H31C         6.1590     0.9860     0.2980 hc         1 XJO       0.039367
     59 H32C         5.5100     0.4050     1.8370 hc         1 XJO       0.039367
     60 H33C         5.0370    -0.3900     0.3200 hc         1 XJO       0.039367
     61 H13         -2.1140     0.7700    -2.9200 ha         1 XJO       0.132000
     62 H181        -2.6560     2.0300     1.8400 h1         1 XJO       0.050200
     63 H182        -4.3830     1.8030     2.0670 h1         1 XJO       0.050200
     64 H16         -5.7430     2.1080     0.2160 ha         1 XJO       0.113000
     65 H201        -3.6660     0.3530     4.1580 h1         1 XJO       0.033700
     66 H202        -2.5760    -1.0180     3.8350 h1         1 XJO       0.033700
     67 H203        -1.9790     0.6450     3.6730 h1         1 XJO       0.033700
     68 H191        -4.5650    -1.0060     0.7390 h1         1 XJO       0.033700
     69 H192        -4.1170    -1.9450     2.1740 h1         1 XJO       0.033700
     70 H193        -5.2880    -0.6120     2.3170 h1         1 XJO       0.033700
     71 H15         -6.1390     2.1440    -2.2320 ha         1 XJO       0.114000
     72 H14         -4.3260     1.4650    -3.8000 ha         1 XJO       0.116000
@<TRIPOS>BOND
     1     1     2 2   
     2     2     3 1   
     3     2     4 1   
     4     3    20 2   
     5     3    34 1   
     6     4     5 1   
     7     4     6 1   
     8     4    35 1   
     9     5    37 1   
    10     5    38 1   
    11     5    39 1   
    12     6     7 1   
    13     6    40 1   
    14     6    41 1   
    15     7     8 1   
    16     7     9 1   
    17     7    42 1   
    18     8    43 1   
    19     8    44 1   
    20     8    45 1   
    21     9    10 1   
    22     9    21 1   
    23     9    46 1   
    24    10    11 1   
    25    10    12 1   
    26    10    47 1   
    27    11    48 1   
    28    11    49 1   
    29    11    50 1   
    30    12    13 2   
    31    12    14 1   
    32    14    15 1   
    33    15    16 1   
    34    15    18 1   
    35    15    51 1   
    36    16    17 1   
    37    16    52 1   
    38    16    53 1   
    39    17    55 1   
    40    17    56 1   
    41    17    57 1   
    42    18    19 1   
    43    18    20 1   
    44    18    54 1   
    45    19    58 1   
    46    19    59 1   
    47    19    60 1   
    48    20    36 1   
    49    21    22 1   
    50    22    23 2   
    51    22    24 1   
    52    24    25 ar  
    53    24    33 ar  
    54    25    26 1   
    55    25    30 ar  
    56    26    27 1   
    57    26    62 1   
    58    26    63 1   
    59    27    28 1   
    60    27    29 1   
    61    28    65 1   
    62    28    66 1   
    63    28    67 1   
    64    29    68 1   
    65    29    69 1   
    66    29    70 1   
    67    30    31 ar  
    68    30    64 1   
    69    31    32 ar  
    70    31    71 1   
    71    32    33 ar  
    72    32    72 1   
    73    33    61 1   
@<TRIPOS>SUBSTRUCTURE
     1 XJO         1 TEMP              0 ****  ****    0 ROOT
