@<TRIPOS>MOLECULE
XJO
   72    73     1     0     0
SMALL
abcg2


@<TRIPOS>ATOM
      1 O4           0.7710     0.4660     3.3210 o          1 XJO      -0.520100
      2 C26          1.3200    -0.4220     2.7000 c          1 XJO       0.576300
      3 C            2.5320    -0.1440     1.8910 ce         1 XJO      -0.310200
      4 C24          0.7850    -1.8490     2.7710 c3         1 XJO      -0.153700
      5 C25          1.8810    -2.8520     3.1370 c3         1 XJO      -0.083100
      6 C23         -0.1560    -2.2820     1.6130 c3         1 XJO      -0.067400
      7 C21          0.3050    -2.4200     0.1500 c3         1 XJO      -0.054700
      8 C22          1.5510    -3.2820    -0.0250 c3         1 XJO      -0.088100
      9 C10          0.4430    -1.0420    -0.5040 c3         1 XJO       0.171300
     10 C8           1.2030    -0.9770    -1.8470 c3         1 XJO      -0.131700
     11 C9           0.4040    -1.4300    -3.0580 c3         1 XJO      -0.071100
     12 C7           1.7060     0.4470    -1.9420 c          1 XJO       0.601100
     13 O1           1.0950     1.3700    -2.4170 o          1 XJO      -0.477000
     14 O            2.8860     0.5440    -1.3400 os         1 XJO      -0.467100
     15 C4           3.4060     1.7870    -0.8420 c3         1 XJO       0.190300
     16 C5           4.4630     2.3530    -1.7780 c3         1 XJO      -0.091400
     17 C6           3.9420     2.7900    -3.1400 c3         1 XJO      -0.088100
     18 C2           3.9600     1.4680     0.5660 c3         1 XJO      -0.040500
     19 C3           5.0990     0.4550     0.5570 c3         1 XJO      -0.083100
     20 C1           2.8190     1.0870     1.4620 c2         1 XJO      -0.138200
     21 O2          -0.8730    -0.5130    -0.7190 os         1 XJO      -0.444100
     22 C11         -1.2070     0.6770    -0.2320 c          1 XJO       0.635700
     23 O3          -0.5260     1.3370     0.5080 o          1 XJO      -0.478000
     24 C12         -2.5100     1.1370    -0.7950 ca         1 XJO      -0.100600
     25 C17         -3.5760     1.4870     0.0370 ca         1 XJO      -0.039300
     26 C18         -3.4940     1.2940     1.5260 c3         1 XJO       0.201100
     27 N           -3.1110    -0.0610     1.8690 n3         1 XJO      -0.719600
     28 C20         -2.8050    -0.1690     3.2790 c3         1 XJO       0.146600
     29 C19         -4.1040    -1.0330     1.4660 c3         1 XJO       0.146600
     30 C16         -4.7400     1.9720    -0.5470 ca         1 XJO      -0.120000
     31 C15         -4.8460     2.1280    -1.9230 ca         1 XJO      -0.093000
     32 C14         -3.7820     1.7790    -2.7400 ca         1 XJO      -0.120000
     33 C13         -2.6190     1.2760    -2.1750 ca         1 XJO      -0.069000
     34 H            3.1510    -0.9850     1.5990 ha         1 XJO       0.184000
     35 H24          0.1080    -1.8240     3.6300 hc         1 XJO       0.061700
     36 H1           2.1430     1.8960     1.7220 ha         1 XJO       0.199000
     37 H251         2.3430    -2.5760     4.0870 hc         1 XJO       0.036367
     38 H252         1.4440    -3.8440     3.2650 hc         1 XJO       0.036367
     39 H253         2.6780    -2.9430     2.4030 hc         1 XJO       0.036367
     40 H231        -0.5450    -3.2570     1.9190 hc         1 XJO       0.056700
     41 H232        -1.0180    -1.6110     1.6310 hc         1 XJO       0.056700
     42 H21         -0.5130    -2.9430    -0.3580 hc         1 XJO       0.061700
     43 H221         1.4830    -4.1790     0.5920 hc         1 XJO       0.036700
     44 H222         1.6640    -3.6130    -1.0580 hc         1 XJO       0.036700
     45 H223         2.4670    -2.7570     0.2510 hc         1 XJO       0.036700
     46 H10          0.9700    -0.4020     0.1970 h1         1 XJO       0.078700
     47 H8           2.0820    -1.6150    -1.7540 hc         1 XJO       0.081700
     48 H91C        -0.4450    -0.7840    -3.2700 hc         1 XJO       0.045367
     49 H92C         1.0390    -1.4480    -3.9430 hc         1 XJO       0.045367
     50 H93C         0.0240    -2.4420    -2.9120 hc         1 XJO       0.045367
     51 H4           2.5880     2.5090    -0.7450 h1         1 XJO       0.071700
     52 H51C         4.9060     3.2130    -1.2700 hc         1 XJO       0.048200
     53 H52C         5.2680     1.6270    -1.9090 hc         1 XJO       0.048200
     54 HA           4.3480     2.4220     0.9420 hc         1 XJO       0.063700
     55 H61C         4.7410     3.2660    -3.7090 hc         1 XJO       0.039033
     56 H62C         3.5820     1.9480    -3.7320 hc         1 XJO       0.039033
     57 H63C         3.1260     3.5060    -3.0460 hc         1 XJO       0.039033
     58 H31C         5.9620     0.8310     0.0100 hc         1 XJO       0.039367
     59 H32C         5.4300     0.2510     1.5750 hc         1 XJO       0.039367
     60 H33C         4.8090    -0.4940     0.1070 hc         1 XJO       0.039367
     61 H13         -1.7840     1.0150    -2.8130 ha         1 XJO       0.132000
     62 H181        -2.7450     1.9720     1.9450 h1         1 XJO       0.050200
     63 H182        -4.4590     1.5790     1.9780 h1         1 XJO       0.050200
     64 H16         -5.5820     2.2230     0.0870 ha         1 XJO       0.113000
     65 H201        -3.6650     0.0580     3.9280 h1         1 XJO       0.033700
     66 H202        -2.4720    -1.1810     3.5100 h1         1 XJO       0.033700
     67 H203        -1.9940     0.5110     3.5360 h1         1 XJO       0.033700
     68 H191        -4.2490    -1.0090     0.3860 h1         1 XJO       0.033700
     69 H192        -3.7640    -2.0340     1.7320 h1         1 XJO       0.033700
     70 H193        -5.0850    -0.8730     1.9400 h1         1 XJO       0.033700
     71 H15         -5.7620     2.5120    -2.3530 ha         1 XJO       0.114000
     72 H14         -3.8540     1.8930    -3.8140 ha         1 XJO       0.116000
@<TRIPOS>BOND
     1     1     2 2   
     2     2     3 1   
     3     2     4 1   
     4     3    20 2   
     5     3    34 1   
     6     4     5 1   
     7     4     6 1   
     8     4    35 1   
     9     5    37 1   
    10     5    38 1   
    11     5    39 1   
    12     6     7 1   
    13     6    40 1   
    14     6    41 1   
    15     7     8 1   
    16     7     9 1   
    17     7    42 1   
    18     8    43 1   
    19     8    44 1   
    20     8    45 1   
    21     9    10 1   
    22     9    21 1   
    23     9    46 1   
    24    10    11 1   
    25    10    12 1   
    26    10    47 1   
    27    11    48 1   
    28    11    49 1   
    29    11    50 1   
    30    12    13 2   
    31    12    14 1   
    32    14    15 1   
    33    15    16 1   
    34    15    18 1   
    35    15    51 1   
    36    16    17 1   
    37    16    52 1   
    38    16    53 1   
    39    17    55 1   
    40    17    56 1   
    41    17    57 1   
    42    18    19 1   
    43    18    20 1   
    44    18    54 1   
    45    19    58 1   
    46    19    59 1   
    47    19    60 1   
    48    20    36 1   
    49    21    22 1   
    50    22    23 2   
    51    22    24 1   
    52    24    25 ar  
    53    24    33 ar  
    54    25    26 1   
    55    25    30 ar  
    56    26    27 1   
    57    26    62 1   
    58    26    63 1   
    59    27    28 1   
    60    27    29 1   
    61    28    65 1   
    62    28    66 1   
    63    28    67 1   
    64    29    68 1   
    65    29    69 1   
    66    29    70 1   
    67    30    31 ar  
    68    30    64 1   
    69    31    32 ar  
    70    31    71 1   
    71    32    33 ar  
    72    32    72 1   
    73    33    61 1   
@<TRIPOS>SUBSTRUCTURE
     1 XJO         1 TEMP              0 ****  ****    0 ROOT
