@<TRIPOS>MOLECULE
XJP
   16    16     1     0     0
SMALL
bcc


@<TRIPOS>ATOM
      1 N01        -13.9150    21.1170    -9.1040 n8         1 XJP      -0.874800
      2 C02        -13.4860    22.0490   -10.1110 c5         1 XJP       0.404700
      3 C03        -14.6380    22.9230   -10.5840 c5         1 XJP       0.026700
      4 S04        -13.8330    24.2440   -11.5200 ss         1 XJP      -0.350200
      5 C05        -12.3030    24.1450   -10.5000 c5         1 XJP       0.522800
      6 N06        -12.1580    25.3500    -9.7080 n8         1 XJP      -0.860800
      7 N07        -12.4820    23.0010    -9.6390 n7         1 XJP      -0.876200
      8 H012       -13.1680    20.4680    -8.8880 hn         1 XJP       0.352800
      9 H1         -14.1150    21.6170    -8.2450 hn         1 XJP       0.352800
     10 H021       -13.1320    21.4620   -10.9690 h2         1 XJP       0.049700
     11 H031       -15.3180    22.3770   -11.2340 h1         1 XJP       0.086700
     12 H032       -15.2020    23.3210    -9.7380 h1         1 XJP       0.086700
     13 H051       -11.4760    24.0020   -11.2080 h3         1 XJP       0.022700
     14 H062       -11.3120    25.2670    -9.1510 hn         1 XJP       0.344800
     15 H2         -11.9950    26.1350   -10.3280 hn         1 XJP       0.344800
     16 H3         -11.5970    22.5360    -9.4820 hn         1 XJP       0.365800
@<TRIPOS>BOND
     1     1     2 1   
     2     1     8 1   
     3     1     9 1   
     4     2     3 1   
     5     2     7 1   
     6     2    10 1   
     7     3     4 1   
     8     3    11 1   
     9     3    12 1   
    10     4     5 1   
    11     5     6 1   
    12     5     7 1   
    13     5    13 1   
    14     6    14 1   
    15     6    15 1   
    16     7    16 1   
@<TRIPOS>SUBSTRUCTURE
     1 XJP         1 TEMP              0 ****  ****    0 ROOT
