@<TRIPOS>MOLECULE
XJP
   16    16     1     0     0
SMALL
No Charge or Current Charge


@<TRIPOS>ATOM
      1 N01        -13.8360    21.4260    -8.9310 n8         1 XJP      -0.985200
      2 C02        -13.5100    22.0380   -10.1610 c5         1 XJP       0.404700
      3 C03        -14.6760    22.8710   -10.7980 c5         1 XJP       0.074600
      4 S04        -14.1050    24.6360   -10.7240 ss         1 XJP      -0.446000
      5 C05        -12.4260    24.0250   -10.4160 c5         1 XJP       0.570700
      6 N06        -11.8480    24.9960    -9.5780 n8         1 XJP      -0.971200
      7 N07        -12.6330    22.9590    -9.4900 n7         1 XJP      -0.931400
      8 H012       -13.0120    20.9120    -8.6190 hn         1 XJP       0.408000
      9 H1         -13.8600    22.2310    -8.3010 hn         1 XJP       0.408000
     10 H021       -12.9970    21.4130   -10.9080 h2         1 XJP       0.049700
     11 H031       -14.8460    22.5700   -11.8400 h1         1 XJP       0.086700
     12 H032       -15.6180    22.7550   -10.2480 h1         1 XJP       0.086700
     13 H051       -11.9290    23.7210   -11.3500 h3         1 XJP       0.022700
     14 H062       -10.8560    25.0590    -9.8090 hn         1 XJP       0.400000
     15 H2         -12.2570    25.8870    -9.8560 hn         1 XJP       0.400000
     16 H3         -11.7230    22.5160    -9.3790 hn         1 XJP       0.421000
@<TRIPOS>BOND
     1     1     2 1   
     2     1     8 1   
     3     1     9 1   
     4     2     3 1   
     5     2     7 1   
     6     2    10 1   
     7     3     4 1   
     8     3    11 1   
     9     3    12 1   
    10     4     5 1   
    11     5     6 1   
    12     5     7 1   
    13     5    13 1   
    14     6    14 1   
    15     6    15 1   
    16     7    16 1   
@<TRIPOS>SUBSTRUCTURE
     1 XJP         1 TEMP              0 ****  ****    0 ROOT
