@<TRIPOS>MOLECULE
XJR
   48    50     1     0     0
SMALL
abcg2


@<TRIPOS>ATOM
      1 C4          39.0960     4.5530    19.4350 ca         1 XJR      -0.130000
      2 C14         43.7150    10.2000    29.2230 ca         1 XJR      -0.101000
      3 C5          40.3230     5.0400    19.8710 ca         1 XJR       0.100100
      4 C6          41.4980     6.5150    21.2940 c3         1 XJR       0.077600
      5 C11         40.9720    12.0540    25.4180 c3         1 XJR       0.189100
      6 C7          41.1880     7.5510    22.3620 c          1 XJR       0.607100
      7 C8          42.2280     9.2160    23.7600 cc         1 XJR      -0.166600
      8 C9          41.7610    10.4920    23.6920 cd         1 XJR       0.141800
      9 C10         41.1050    11.1740    22.5540 c3         1 XJR      -0.052900
     10 C12         43.1270    10.5760    26.9260 ca         1 XJR       0.048600
     11 C13         43.0090     9.8230    28.0890 ca         1 XJR      -0.109500
     12 N1          42.2730     8.2780    22.7260 ns         1 XJR      -0.404100
     13 N2          41.9430    11.1090    24.8900 na         1 XJR      -0.387400
     14 C3          39.0230     3.5700    18.4590 ca         1 XJR      -0.134500
     15 N3          42.4310    10.1600    25.7720 n          1 XJR      -0.175400
     16 C1          38.9950     1.5860    16.4680 c3         1 XJR       0.148900
     17 C2          40.1890     3.0520    17.8980 ca         1 XJR       0.106100
     18 O2          40.2850     6.0020    20.8250 os         1 XJR      -0.313100
     19 O3          40.0850     7.7030    22.8400 o          1 XJR      -0.549100
     20 C15         44.5150    11.3340    29.2080 ca         1 XJR      -0.114000
     21 C16         44.6170    12.0890    28.0470 ca         1 XJR      -0.101000
     22 C17         43.9350    11.7080    26.9010 ca         1 XJR      -0.109500
     23 C18         42.6960     8.9730    25.0990 c          1 XJR       0.562200
     24 O4          43.2440     7.9990    25.5910 o          1 XJR      -0.526000
     25 C19         41.4890     4.5230    19.3110 ca         1 XJR      -0.130000
     26 C20         41.4160     3.5400    18.3360 ca         1 XJR      -0.134500
     27 H5          38.1830     4.9470    19.8630 ha         1 XJR       0.123000
     28 H16         43.6260     9.6100    30.1250 ha         1 XJR       0.116000
     29 H6          42.1280     5.7350    21.7410 h1         1 XJR       0.049200
     30 H7          42.0840     6.9800    20.4910 h1         1 XJR       0.049200
     31 H14         41.3970    12.5910    26.2620 h1         1 XJR       0.057367
     32 H12         40.7430    12.7810    24.6440 h1         1 XJR       0.057367
     33 H13         40.0530    11.5550    25.7310 h1         1 XJR       0.057367
     34 H10         41.4840    12.1870    22.4220 hc         1 XJR       0.063367
     35 H11         41.2830    10.6160    21.6370 hc         1 XJR       0.063367
     36 H9          40.0250    11.2370    22.7040 hc         1 XJR       0.063367
     37 H15         42.3640     8.9560    28.1120 ha         1 XJR       0.130000
     38 H8          43.1660     8.0710    22.3010 hn         1 XJR       0.323500
     39 H4          38.0450     3.2240    18.1540 ha         1 XJR       0.123000
     40 H3          39.2400     0.8410    15.7140 h1         1 XJR       0.039367
     41 H1          38.4130     1.1050    17.2590 h1         1 XJR       0.039367
     42 H2          38.3790     2.3620    16.0040 h1         1 XJR       0.039367
     43 H17         45.0550    11.6300    30.0980 ha         1 XJR       0.115000
     44 H18         45.2390    12.9740    28.0260 ha         1 XJR       0.116000
     45 H19         44.0340    12.2870    25.9910 ha         1 XJR       0.130000
     46 H20         42.4680     4.8690    19.6150 ha         1 XJR       0.123000
     47 H21         42.3300     3.1470    17.9080 ha         1 XJR       0.123000
     48 O1          40.2210     2.0950    16.9440 os         1 XJR      -0.342100
@<TRIPOS>BOND
     1     1     3 ar  
     2     1    14 ar  
     3     1    27 1   
     4     2    11 ar  
     5     2    20 ar  
     6     2    28 1   
     7     3    18 1   
     8     3    25 ar  
     9     4     6 1   
    10     4    18 1   
    11     4    29 1   
    12     4    30 1   
    13     5    13 1   
    14     5    31 1   
    15     5    32 1   
    16     5    33 1   
    17     6    12 1   
    18     6    19 2   
    19     7     8 2   
    20     7    12 1   
    21     7    23 1   
    22     8     9 1   
    23     8    13 1   
    24     9    34 1   
    25     9    35 1   
    26     9    36 1   
    27    10    11 ar  
    28    10    15 1   
    29    10    22 ar  
    30    11    37 1   
    31    12    38 1   
    32    13    15 1   
    33    14    17 ar  
    34    14    39 1   
    35    15    23 1   
    36    16    40 1   
    37    16    41 1   
    38    16    42 1   
    39    16    48 1   
    40    17    26 ar  
    41    17    48 1   
    42    20    21 ar  
    43    20    43 1   
    44    21    22 ar  
    45    21    44 1   
    46    22    45 1   
    47    23    24 2   
    48    25    26 ar  
    49    25    46 1   
    50    26    47 1   
@<TRIPOS>SUBSTRUCTURE
     1 XJR         1 TEMP              0 ****  ****    0 ROOT
