@<TRIPOS>MOLECULE
XJR
   48    50     1     0     0
SMALL
No Charge or Current Charge


@<TRIPOS>ATOM
      1 C4          39.1780     4.8660    18.6080 ca         1 XJR      -0.130000
      2 C14         44.5670    10.2730    29.0740 ca         1 XJR      -0.101000
      3 C5          40.1930     5.0570    19.5610 ca         1 XJR       0.100100
      4 C6          41.1040     6.4570    21.3900 c3         1 XJR       0.077600
      5 C11         40.9900    12.1760    25.8240 c3         1 XJR       0.189100
      6 C7          40.7900     7.7570    22.1700 c          1 XJR       0.607100
      7 C8          41.8310     9.1590    24.0310 cc         1 XJR      -0.166600
      8 C9          41.3190    10.4390    23.9360 cd         1 XJR       0.141800
      9 C10         40.4840    11.1130    22.8770 c3         1 XJR      -0.052900
     10 C12         43.4450    10.6920    26.9420 ca         1 XJR       0.048600
     11 C13         43.7360     9.8380    28.0260 ca         1 XJR      -0.109500
     12 N1          41.7180     8.0520    23.1610 ns         1 XJR      -0.404100
     13 N2          41.7370    11.1250    25.0900 na         1 XJR      -0.387400
     14 C3          39.2050     3.7530    17.7470 ca         1 XJR      -0.134500
     15 N3          42.5920    10.2460    25.8700 n          1 XJR      -0.175400
     16 C1          39.3540     1.4200    16.0130 c3         1 XJR       0.148900
     17 C2          40.2600     2.8180    17.8370 ca         1 XJR       0.106100
     18 O2          40.1110     6.1670    20.3770 os         1 XJR      -0.313100
     19 O3          39.8000     8.4420    21.9480 o          1 XJR      -0.549100
     20 C15         45.1160    11.5660    29.0470 ca         1 XJR      -0.114000
     21 C16         44.8350    12.4220    27.9700 ca         1 XJR      -0.101000
     22 C17         44.0040    11.9870    26.9230 ca         1 XJR      -0.109500
     23 C18         42.6490     9.0070    25.2280 c          1 XJR       0.562200
     24 O4          43.2890     8.0200    25.5730 o          1 XJR      -0.526000
     25 C19         41.2480     4.1220    19.6510 ca         1 XJR      -0.130000
     26 C20         41.2740     3.0090    18.7890 ca         1 XJR      -0.134500
     27 H5          38.3660     5.5850    18.5380 ha         1 XJR       0.123000
     28 H16         44.7820     9.6090    29.9080 ha         1 XJR       0.116000
     29 H6          41.1600     5.6390    22.1190 h1         1 XJR       0.049200
     30 H7          42.0950     6.5780    20.9340 h1         1 XJR       0.049200
     31 H14         41.4250    13.1590    25.6060 h1         1 XJR       0.057367
     32 H12         39.9380    12.1740    25.5110 h1         1 XJR       0.057367
     33 H13         41.0320    11.9950    26.9050 h1         1 XJR       0.057367
     34 H10         40.5570    12.2040    22.9480 hc         1 XJR       0.063367
     35 H11         40.8220    10.8370    21.8720 hc         1 XJR       0.063367
     36 H9          39.4260    10.8460    22.9780 hc         1 XJR       0.063367
     37 H15         43.3090     8.8400    28.0670 ha         1 XJR       0.130000
     38 H8          42.3900     7.3030    23.3030 hn         1 XJR       0.323500
     39 H4          38.4050     3.6360    17.0220 ha         1 XJR       0.123000
     40 H3          39.6110     0.4950    15.4820 h1         1 XJR       0.039367
     41 H1          38.3630     1.2880    16.4650 h1         1 XJR       0.039367
     42 H2          39.3010     2.2320    15.2760 h1         1 XJR       0.039367
     43 H17         45.7580    11.9020    29.8570 ha         1 XJR       0.115000
     44 H18         45.2630    13.4220    27.9450 ha         1 XJR       0.116000
     45 H19         43.8080    12.6550    26.0870 ha         1 XJR       0.130000
     46 H20         42.0480     4.2390    20.3750 ha         1 XJR       0.123000
     47 H21         42.0870     2.2900    18.8600 ha         1 XJR       0.123000
     48 O1          40.3420     1.7080    17.0200 os         1 XJR      -0.342100
@<TRIPOS>BOND
     1     1     3 ar  
     2     1    14 ar  
     3     1    27 1   
     4     2    11 ar  
     5     2    20 ar  
     6     2    28 1   
     7     3    18 1   
     8     3    25 ar  
     9     4     6 1   
    10     4    18 1   
    11     4    29 1   
    12     4    30 1   
    13     5    13 1   
    14     5    31 1   
    15     5    32 1   
    16     5    33 1   
    17     6    12 1   
    18     6    19 2   
    19     7     8 2   
    20     7    12 1   
    21     7    23 1   
    22     8     9 1   
    23     8    13 1   
    24     9    34 1   
    25     9    35 1   
    26     9    36 1   
    27    10    11 ar  
    28    10    15 1   
    29    10    22 ar  
    30    11    37 1   
    31    12    38 1   
    32    13    15 1   
    33    14    17 ar  
    34    14    39 1   
    35    15    23 1   
    36    16    40 1   
    37    16    41 1   
    38    16    42 1   
    39    16    48 1   
    40    17    26 ar  
    41    17    48 1   
    42    20    21 ar  
    43    20    43 1   
    44    21    22 ar  
    45    21    44 1   
    46    22    45 1   
    47    23    24 2   
    48    25    26 ar  
    49    25    46 1   
    50    26    47 1   
@<TRIPOS>SUBSTRUCTURE
     1 XJR         1 TEMP              0 ****  ****    0 ROOT
