@<TRIPOS>MOLECULE
XJT
   56    58     1     0     0
SMALL
abcg2


@<TRIPOS>ATOM
      1 N1          -1.7520    -7.6840    12.6200 nv         1 XJT      -1.052900
      2 C2          -0.5030   -10.9680    12.7140 ca         1 XJT       0.381900
      3 C3          -0.8810   -11.3810    14.0170 ca         1 XJT      -0.092900
      4 C4          -1.2850   -13.7290    13.9380 c3         1 XJT       0.144600
      5 C6          -0.8950   -15.2310    15.9510 c3         1 XJT       0.165600
      6 C7          -2.7860   -15.3410    17.4460 ca         1 XJT       0.114100
      7 C8          -1.9780   -15.4950    18.5680 ca         1 XJT      -0.201000
      8 C9          -2.5520   -15.4870    19.8380 ca         1 XJT      -0.105000
      9 C10         -3.9220   -15.3290    19.9820 ca         1 XJT      -0.152000
     10 C11         -4.7210   -15.1820    18.8470 ca         1 XJT      -0.090000
     11 C12         -4.1810   -15.1810    17.5660 ca         1 XJT      -0.073300
     12 C13         -4.9970   -14.9830    16.3120 c3         1 XJT      -0.016100
     13 C15         -7.2650   -14.4300    15.2140 c          1 XJT       0.710000
     14 C19         -1.6480    -9.8060    18.5240 ca         1 XJT      -0.211300
     15 C20         -1.2400    -8.7470    19.5040 c3         1 XJT       0.343300
     16 C23         -2.4000   -11.7970    16.7480 ca         1 XJT      -0.033000
     17 C1          -1.4500    -8.9300    13.0940 ca         1 XJT       0.394900
     18 C14         -6.4790   -14.7110    16.5110 c3         1 XJT      -0.206400
     19 C16         -1.4750   -10.4280    14.8260 cp         1 XJT       0.235500
     20 C17         -1.7640   -10.6530    16.2650 cp         1 XJT      -0.151500
     21 C18         -1.3970    -9.6520    17.1690 ca         1 XJT      -0.030000
     22 C21         -2.2920   -10.9470    19.0010 ca         1 XJT      -0.056000
     23 C22         -2.6710   -11.9350    18.1060 ca         1 XJT      -0.114000
     24 C5          -0.6930   -15.0210    14.4630 c3         1 XJT      -0.074400
     25 F1          -2.3050    -8.2170    20.1570 f          1 XJT      -0.119667
     26 F2          -0.5900    -7.7150    18.9280 f          1 XJT      -0.119667
     27 F3          -0.4190    -9.2350    20.4670 f          1 XJT      -0.119667
     28 N2          -0.8170    -9.7580    12.2510 nb         1 XJT      -0.317000
     29 N4          -1.7590    -9.1920    14.3650 nb         1 XJT      -0.266000
     30 O2          -2.3050   -15.3150    16.1730 os         1 XJT      -0.353100
     31 O3          -8.5180   -14.5410    15.2940 o          1 XJT      -0.741000
     32 O4          -6.6240   -14.0890    14.1870 o          1 XJT      -0.741000
     33 H1          -1.7640    -7.5680    11.6200 hn         1 XJT       0.483000
     34 H2          -2.4370    -7.1580    13.1380 hn         1 XJT       0.483000
     35 H3          -2.3270   -13.6160    14.2430 h1         1 XJT       0.057700
     36 H4          -1.2460   -13.7110    12.8480 h1         1 XJT       0.057700
     37 H5          -0.4090   -16.1540    16.2780 h1         1 XJT       0.036200
     38 H6          -0.4830   -14.3990    16.5290 h1         1 XJT       0.036200
     39 H7          -0.9090   -15.6110    18.4640 ha         1 XJT       0.104000
     40 H8          -1.9180   -15.6000    20.7090 ha         1 XJT       0.098000
     41 H9          -4.3730   -15.3170    20.9660 ha         1 XJT       0.104000
     42 H10         -5.7880   -15.0530    18.9690 ha         1 XJT       0.130000
     43 H11         -4.8710   -15.8610    15.6700 hc         1 XJT       0.060200
     44 H12         -4.5600   -14.1610    15.7410 hc         1 XJT       0.060200
     45 H13         -2.7090   -12.5750    16.0660 ha         1 XJT       0.145000
     46 H14         -6.6180   -13.8350    17.1550 hc         1 XJT       0.022200
     47 H15         -6.9690   -15.5400    17.0260 hc         1 XJT       0.022200
     48 H16         -0.9100    -8.7620    16.8000 ha         1 XJT       0.136000
     49 H17         -2.4950   -11.0610    20.0580 ha         1 XJT       0.122000
     50 H18         -3.1780   -12.8190    18.4650 ha         1 XJT       0.143000
     51 H19         -1.1510   -15.8520    13.9200 hc         1 XJT       0.055200
     52 H20          0.3770   -15.0440    14.2460 hc         1 XJT       0.055200
     53 H21          0.6070   -11.3950    11.0780 hn         1 XJT       0.484500
     54 H22          0.6680   -12.5850    12.3090 hn         1 XJT       0.484500
     55 N3           0.1830   -11.8040    11.8960 nv         1 XJT      -1.062900
     56 O1          -0.5140   -12.6260    14.4710 os         1 XJT      -0.367100
@<TRIPOS>BOND
     1     1    17 1   
     2     1    33 1   
     3     1    34 1   
     4     2     3 ar  
     5     2    28 ar  
     6     2    55 1   
     7     3    19 ar  
     8     3    56 1   
     9     4    24 1   
    10     4    35 1   
    11     4    36 1   
    12     4    56 1   
    13     5    24 1   
    14     5    30 1   
    15     5    37 1   
    16     5    38 1   
    17     6     7 ar  
    18     6    11 ar  
    19     6    30 1   
    20     7     8 ar  
    21     7    39 1   
    22     8     9 ar  
    23     8    40 1   
    24     9    10 ar  
    25     9    41 1   
    26    10    11 ar  
    27    10    42 1   
    28    11    12 1   
    29    12    18 1   
    30    12    43 1   
    31    12    44 1   
    32    13    18 1   
    33    13    31 1   
    34    13    32 1   
    35    14    15 1   
    36    14    21 ar  
    37    14    22 ar  
    38    15    25 1   
    39    15    26 1   
    40    15    27 1   
    41    16    20 ar  
    42    16    23 ar  
    43    16    45 1   
    44    17    28 ar  
    45    17    29 ar  
    46    18    46 1   
    47    18    47 1   
    48    19    20 1   
    49    19    29 ar  
    50    20    21 ar  
    51    21    48 1   
    52    22    23 ar  
    53    22    49 1   
    54    23    50 1   
    55    24    51 1   
    56    24    52 1   
    57    53    55 1   
    58    54    55 1   
@<TRIPOS>SUBSTRUCTURE
     1 XJT         1 TEMP              0 ****  ****    0 ROOT
