@<TRIPOS>MOLECULE
XJT
   56    58     1     0     0
SMALL
No Charge or Current Charge


@<TRIPOS>ATOM
      1 N1          -1.4870    -7.5530    12.6160 nv         1 XJT      -1.052900
      2 C2          -0.6060   -10.9250    12.5690 ca         1 XJT       0.381900
      3 C3          -0.8550   -11.3120    13.9100 ca         1 XJT      -0.092900
      4 C4          -1.2970   -13.7300    13.8520 c3         1 XJT       0.144600
      5 C6          -0.9550   -15.0970    16.0250 c3         1 XJT       0.165600
      6 C7          -2.9280   -15.2680    17.5050 ca         1 XJT       0.114100
      7 C8          -2.1210   -15.3630    18.6620 ca         1 XJT      -0.201000
      8 C9          -2.7120   -15.4210    19.9330 ca         1 XJT      -0.105000
      9 C10         -4.1070   -15.3840    20.0570 ca         1 XJT      -0.152000
     10 C11         -4.9170   -15.2910    18.9130 ca         1 XJT      -0.090000
     11 C12         -4.3380   -15.2310    17.6240 ca         1 XJT      -0.073300
     12 C13         -5.1890   -15.1160    16.3470 c3         1 XJT      -0.016100
     13 C15         -7.4220   -14.9680    15.1720 c          1 XJT       0.710000
     14 C19         -1.3970    -9.7300    18.6000 ca         1 XJT      -0.211300
     15 C20         -0.9030    -8.6820    19.6020 c3         1 XJT       0.343300
     16 C23         -2.3160   -11.6360    16.7310 ca         1 XJT      -0.033000
     17 C1          -1.2680    -8.8150    13.0520 ca         1 XJT       0.394900
     18 C14         -6.7270   -15.0770    16.5390 c3         1 XJT      -0.206400
     19 C16         -1.3220   -10.3020    14.8020 cp         1 XJT       0.235500
     20 C17         -1.5870   -10.5160    16.2640 cp         1 XJT      -0.151500
     21 C18         -1.1450    -9.5650    17.2210 ca         1 XJT      -0.030000
     22 C21         -2.1310   -10.8550    19.0300 ca         1 XJT      -0.056000
     23 C22         -2.5890   -11.7980    18.0990 ca         1 XJT      -0.114000
     24 C5          -0.7150   -15.0000    14.5060 c3         1 XJT      -0.074400
     25 F1          -1.7560    -7.6350    19.6780 f          1 XJT      -0.119667
     26 F2           0.3070    -8.1820    19.2620 f          1 XJT      -0.119667
     27 F3          -0.7750    -9.1780    20.8550 f          1 XJT      -0.119667
     28 N2          -0.8190    -9.6780    12.1370 nb         1 XJT      -0.317000
     29 N4          -1.5210    -9.0480    14.3450 nb         1 XJT      -0.266000
     30 O2          -2.3730   -15.1920    16.2420 os         1 XJT      -0.353100
     31 O3          -7.6960   -16.0010    14.5810 o          1 XJT      -0.741000
     32 O4          -7.6260   -13.8540    14.7160 o          1 XJT      -0.741000
     33 H1          -1.5130    -7.3870    11.6130 hn         1 XJT       0.483000
     34 H2          -2.0250    -6.9200    13.2030 hn         1 XJT       0.483000
     35 H3          -2.3730   -13.6600    14.0560 h1         1 XJT       0.057700
     36 H4          -1.1690   -13.8070    12.7660 h1         1 XJT       0.057700
     37 H5          -0.4460   -15.9900    16.4120 h1         1 XJT       0.036200
     38 H6          -0.5390   -14.2130    16.5260 h1         1 XJT       0.036200
     39 H7          -1.0380   -15.3910    18.5960 ha         1 XJT       0.104000
     40 H8          -2.0890   -15.4930    20.8220 ha         1 XJT       0.098000
     41 H9          -4.5650   -15.4280    21.0430 ha         1 XJT       0.104000
     42 H10         -5.9950   -15.2630    19.0480 ha         1 XJT       0.130000
     43 H11         -4.9480   -15.9560    15.6840 hc         1 XJT       0.060200
     44 H12         -4.8900   -14.2110    15.8030 hc         1 XJT       0.060200
     45 H13         -2.6960   -12.3710    16.0260 ha         1 XJT       0.145000
     46 H14         -6.9360   -14.1850    17.1420 hc         1 XJT       0.022200
     47 H15         -6.9960   -16.0230    17.0260 hc         1 XJT       0.022200
     48 H16         -0.5920    -8.6910    16.8810 ha         1 XJT       0.136000
     49 H17         -2.3590   -11.0000    20.0850 ha         1 XJT       0.122000
     50 H18         -3.1660   -12.6530    18.4400 ha         1 XJT       0.143000
     51 H19         -1.1500   -15.8820    14.0220 hc         1 XJT       0.055200
     52 H20          0.3640   -15.0390    14.3130 hc         1 XJT       0.055200
     53 H21          0.2960   -11.3280    10.7800 hn         1 XJT       0.484500
     54 H22          0.4210   -12.5820    11.9590 hn         1 XJT       0.484500
     55 N3          -0.0650   -11.7520    11.6310 nv         1 XJT      -1.062900
     56 O1          -0.5950   -12.5890    14.3870 os         1 XJT      -0.367100
@<TRIPOS>BOND
     1     1    17 1   
     2     1    33 1   
     3     1    34 1   
     4     2     3 ar  
     5     2    28 ar  
     6     2    55 1   
     7     3    19 ar  
     8     3    56 1   
     9     4    24 1   
    10     4    35 1   
    11     4    36 1   
    12     4    56 1   
    13     5    24 1   
    14     5    30 1   
    15     5    37 1   
    16     5    38 1   
    17     6     7 ar  
    18     6    11 ar  
    19     6    30 1   
    20     7     8 ar  
    21     7    39 1   
    22     8     9 ar  
    23     8    40 1   
    24     9    10 ar  
    25     9    41 1   
    26    10    11 ar  
    27    10    42 1   
    28    11    12 1   
    29    12    18 1   
    30    12    43 1   
    31    12    44 1   
    32    13    18 1   
    33    13    31 1   
    34    13    32 1   
    35    14    15 1   
    36    14    21 ar  
    37    14    22 ar  
    38    15    25 1   
    39    15    26 1   
    40    15    27 1   
    41    16    20 ar  
    42    16    23 ar  
    43    16    45 1   
    44    17    28 ar  
    45    17    29 ar  
    46    18    46 1   
    47    18    47 1   
    48    19    20 1   
    49    19    29 ar  
    50    20    21 ar  
    51    21    48 1   
    52    22    23 ar  
    53    22    49 1   
    54    23    50 1   
    55    24    51 1   
    56    24    52 1   
    57    53    55 1   
    58    54    55 1   
@<TRIPOS>SUBSTRUCTURE
     1 XJT         1 TEMP              0 ****  ****    0 ROOT
