@<TRIPOS>MOLECULE
XJV
   12    12     1     0     0
SMALL
No Charge or Current Charge


@<TRIPOS>ATOM
      1 O01        -16.3980    25.1840     1.1810 o          1 XJV      -0.568000
      2 C02        -15.3510    25.7020     0.8450 c          1 XJV       0.575000
      3 N03        -14.6000    26.5240     1.6110 ns         1 XJV      -0.498400
      4 C04        -13.3700    26.9560     0.9490 c5         1 XJV       0.072000
      5 C05        -13.5230    26.3350    -0.4840 c5         1 XJV       0.072000
      6 N06        -14.7510    25.5500    -0.3570 ns         1 XJV      -0.498400
      7 H031       -14.8960    26.7430     2.5550 hn         1 XJV       0.322500
      8 H041       -13.2870    28.0500     0.9050 h1         1 XJV       0.050200
      9 H042       -12.4790    26.5650     1.4580 h1         1 XJV       0.050200
     10 H051       -13.6220    27.1180    -1.2480 h1         1 XJV       0.050200
     11 H052       -12.6590    25.7090    -0.7450 h1         1 XJV       0.050200
     12 H061       -15.1830    24.9710    -1.0670 hn         1 XJV       0.322500
@<TRIPOS>BOND
     1     1     2 2   
     2     2     3 1   
     3     2     6 1   
     4     3     4 1   
     5     3     7 1   
     6     4     5 1   
     7     4     8 1   
     8     4     9 1   
     9     5     6 1   
    10     5    10 1   
    11     5    11 1   
    12     6    12 1   
@<TRIPOS>SUBSTRUCTURE
     1 XJV         1 TEMP              0 ****  ****    0 ROOT
