@<TRIPOS>MOLECULE
XJV
   12    12     1     0     0
SMALL
abcg2


@<TRIPOS>ATOM
      1 O01        -16.4010    25.1860     1.1800 o          1 XJV      -0.568000
      2 C02        -15.3500    25.7030     0.8440 c          1 XJV       0.575000
      3 N03        -14.7020    26.7190     1.4920 ns         1 XJV      -0.498400
      4 C04        -13.3740    26.9150     0.9450 c5         1 XJV       0.072000
      5 C05        -13.5540    26.3580    -0.4690 c5         1 XJV       0.072000
      6 N06        -14.5980    25.3770    -0.2520 ns         1 XJV      -0.498400
      7 H031       -14.8710    26.8500     2.4770 hn         1 XJV       0.322500
      8 H041       -13.0820    27.9630     0.9420 h1         1 XJV       0.050200
      9 H042       -12.6190    26.3480     1.4980 h1         1 XJV       0.050200
     10 H051       -13.8710    27.1430    -1.1630 h1         1 XJV       0.050200
     11 H052       -12.6410    25.9080    -0.8550 h1         1 XJV       0.050200
     12 H061       -15.0550    24.9380    -1.0360 hn         1 XJV       0.322500
@<TRIPOS>BOND
     1     1     2 2   
     2     2     3 1   
     3     2     6 1   
     4     3     4 1   
     5     3     7 1   
     6     4     5 1   
     7     4     8 1   
     8     4     9 1   
     9     5     6 1   
    10     5    10 1   
    11     5    11 1   
    12     6    12 1   
@<TRIPOS>SUBSTRUCTURE
     1 XJV         1 TEMP              0 ****  ****    0 ROOT
