@<TRIPOS>MOLECULE
XJX
   61    64     1     0     0
SMALL
No Charge or Current Charge


@<TRIPOS>ATOM
      1 C1          -4.9290     3.1960    -0.0130 c3         1 XJX      -0.088100
      2 C2          -5.8660     1.9980    -0.2850 c3         1 XJX      -0.001400
      3 C3          -6.2040     1.8700    -1.7870 c3         1 XJX      -0.088100
      4 C4          -5.2800     0.6860     0.2680 ca         1 XJX      -0.225300
      5 C5          -4.0270     0.2430    -0.2100 ca         1 XJX       0.003000
      6 C6          -3.4330    -0.9430     0.2730 ca         1 XJX      -0.296600
      7 C7          -2.0840    -1.4070    -0.2180 c          1 XJX       0.636700
      8 O8          -1.8330    -2.6080    -0.2490 o          1 XJX      -0.657100
      9 N9          -1.1560    -0.4610    -0.6920 n          1 XJX      -0.393800
     10 C10         -1.0050     0.8650     0.0040 c5         1 XJX       0.156300
     11 C11          0.4600     1.1460    -0.1860 ca         1 XJX      -0.113300
     12 C12          1.1790     2.2500     0.2980 ca         1 XJX      -0.089000
     13 C13          2.5550     2.3440     0.0110 ca         1 XJX      -0.109000
     14 C14          3.1980     1.3430    -0.7540 ca         1 XJX      -0.077300
     15 C15          4.6890     1.4410    -1.0640 c3         1 XJX       0.215100
     16 N16          5.4900     0.3540    -0.4530 n3         1 XJX      -0.726600
     17 C18          6.9190     0.3780    -0.8920 c6         1 XJX       0.165300
     18 C19          7.7530    -0.7890    -0.2700 c6         1 XJX       0.164300
     19 N20          7.6800    -0.8070     1.2230 n3         1 XJX      -0.719600
     20 C22          8.4840    -1.8930     1.8230 c3         1 XJX       0.154100
     21 C23          6.2510    -0.8320     1.6640 c6         1 XJX       0.164300
     22 C24          5.4150     0.3330     1.0430 c6         1 XJX       0.165300
     23 C25          2.4500     0.2440    -1.2280 ca         1 XJX      -0.069000
     24 C26          1.0800     0.1680    -0.9310 ca         1 XJX      -0.104300
     25 C27          0.1250    -0.9210    -1.3340 c5         1 XJX       0.143300
     26 C28         -4.1480    -1.7240     1.1990 ca         1 XJX       0.246100
     27 O29         -3.6430    -2.9070     1.6350 oh         1 XJX      -0.544100
     28 C30         -5.3890    -1.3000     1.6790 ca         1 XJX      -0.218000
     29 C31         -5.9520    -0.1020     1.2300 ca         1 XJX       0.210100
     30 O32         -7.1650     0.2630     1.7280 oh         1 XJX      -0.531100
     31 H11C        -5.4030     4.1340    -0.3260 hc         1 XJX       0.036867
     32 H12C        -4.7040     3.2720     1.0580 hc         1 XJX       0.036867
     33 H13C        -3.9820     3.0980    -0.5560 hc         1 XJX       0.036867
     34 H2          -6.8090     2.2380     0.2180 hc         1 XJX       0.032700
     35 H31C        -5.3010     1.7030    -2.3850 hc         1 XJX       0.036867
     36 H32C        -6.8880     1.0300    -1.9560 hc         1 XJX       0.036867
     37 H33C        -6.6900     2.7830    -2.1520 hc         1 XJX       0.036867
     38 H5          -3.5300     0.8160    -0.9870 ha         1 XJX       0.112000
     39 H10A        -1.6050     1.6530    -0.4660 h1         1 XJX       0.061700
     40 H27A         0.4630    -1.8940    -0.9530 h1         1 XJX       0.073200
     41 H10B        -1.2640     0.8020     1.0700 h1         1 XJX       0.061700
     42 H27B         0.0260    -0.9850    -2.4260 h1         1 XJX       0.073200
     43 H12          0.6840     3.0200     0.8850 ha         1 XJX       0.117000
     44 H13          3.1220     3.1950     0.3830 ha         1 XJX       0.113000
     45 H151         4.8070     1.4170    -2.1560 h1         1 XJX       0.040200
     46 H152         5.0650     2.4170    -0.7270 h1         1 XJX       0.040200
     47 H25          2.9320    -0.5390    -1.8110 ha         1 XJX       0.138000
     48 H181         6.9810     0.3070    -1.9880 h1         1 XJX       0.039700
     49 H182         7.3860     1.3320    -0.6050 h1         1 XJX       0.039700
     50 H241         5.7850     1.2850     1.4520 h1         1 XJX       0.039700
     51 H242         4.3730     0.2240     1.3760 h1         1 XJX       0.039700
     52 H191         7.3800    -1.7400    -0.6780 h1         1 XJX       0.038200
     53 H192         8.7980    -0.6870    -0.5990 h1         1 XJX       0.038200
     54 H221         9.5350    -1.8110     1.5160 h1         1 XJX       0.030700
     55 H222         8.4460    -1.8430     2.9190 h1         1 XJX       0.030700
     56 H223         8.1090    -2.8770     1.5100 h1         1 XJX       0.030700
     57 H231         5.7850    -1.7870     1.3780 h1         1 XJX       0.038200
     58 H232         6.1900    -0.7620     2.7600 h1         1 XJX       0.038200
     59 H29         -2.8720    -3.0930     1.0360 ho         1 XJX       0.518000
     60 H30         -5.9220    -1.9090     2.4030 ha         1 XJX       0.148000
     61 H32         -7.4170     1.1080     1.3050 ho         1 XJX       0.471000
@<TRIPOS>BOND
     1     1     2 1   
     2     1    31 1   
     3     1    32 1   
     4     1    33 1   
     5     2     3 1   
     6     2     4 1   
     7     2    34 1   
     8     3    35 1   
     9     3    36 1   
    10     3    37 1   
    11     4     5 ar  
    12     4    29 ar  
    13     5     6 ar  
    14     5    38 1   
    15     6     7 1   
    16     6    26 ar  
    17     7     8 2   
    18     7     9 1   
    19     9    10 1   
    20     9    25 1   
    21    10    11 1   
    22    10    39 1   
    23    10    41 1   
    24    11    12 ar  
    25    11    24 ar  
    26    12    13 ar  
    27    12    43 1   
    28    13    14 ar  
    29    13    44 1   
    30    14    15 1   
    31    14    23 ar  
    32    15    16 1   
    33    15    45 1   
    34    15    46 1   
    35    16    17 1   
    36    16    22 1   
    37    17    18 1   
    38    17    48 1   
    39    17    49 1   
    40    18    19 1   
    41    18    52 1   
    42    18    53 1   
    43    19    20 1   
    44    19    21 1   
    45    20    54 1   
    46    20    55 1   
    47    20    56 1   
    48    21    22 1   
    49    21    57 1   
    50    21    58 1   
    51    22    50 1   
    52    22    51 1   
    53    23    24 ar  
    54    23    47 1   
    55    24    25 1   
    56    25    40 1   
    57    25    42 1   
    58    26    27 1   
    59    26    28 ar  
    60    27    59 1   
    61    28    29 ar  
    62    28    60 1   
    63    29    30 1   
    64    30    61 1   
@<TRIPOS>SUBSTRUCTURE
     1 XJX         1 TEMP              0 ****  ****    0 ROOT
