@<TRIPOS>MOLECULE
XJX
   61    64     1     0     0
SMALL
bcc


@<TRIPOS>ATOM
      1 C1          -4.7980     3.0870    -0.5990 c3         1 XJX      -0.088100
      2 C2          -5.7900     1.9450    -0.3950 c3         1 XJX      -0.001400
      3 C3          -6.4750     1.5670    -1.7100 c3         1 XJX      -0.088100
      4 C4          -5.1630     0.7210     0.2410 ca         1 XJX      -0.225300
      5 C5          -3.8950     0.3050    -0.1230 ca         1 XJX      -0.015000
      6 C6          -3.2840    -0.8500     0.3650 ca         1 XJX      -0.296600
      7 C7          -1.9360    -1.3060    -0.0370 c          1 XJX       0.703700
      8 O8          -1.6880    -2.5240    -0.0420 o          1 XJX      -0.657100
      9 N9          -0.9770    -0.4280    -0.3690 n          1 XJX      -0.460800
     10 C10         -0.9820     1.0170    -0.1290 c5         1 XJX       0.156300
     11 C11          0.4740     1.3560    -0.1410 ca         1 XJX      -0.113300
     12 C12          1.0880     2.5630     0.1470 ca         1 XJX      -0.107000
     13 C13          2.4700     2.6490     0.0350 ca         1 XJX      -0.127000
     14 C14          3.2360     1.5580    -0.3750 ca         1 XJX      -0.077300
     15 C15          4.7250     1.7120    -0.5550 c3         1 XJX       0.215100
     16 N16          5.4650     0.5110    -0.2450 n3         1 XJX      -0.726600
     17 C18          6.8320     0.5790    -0.7250 c6         1 XJX       0.165300
     18 C19          7.5540    -0.7280    -0.4630 c6         1 XJX       0.164300
     19 N20          7.5340    -1.0480     0.9500 n3         1 XJX      -0.719600
     20 C22          8.2650    -2.2590     1.2380 c3         1 XJX       0.154100
     21 C23          6.1680    -1.1140     1.4300 c6         1 XJX       0.164300
     22 C24          5.4450     0.1930     1.1700 c6         1 XJX       0.165300
     23 C25          2.6030     0.3490    -0.6570 ca         1 XJX      -0.087000
     24 C26          1.2270     0.2620    -0.5300 ca         1 XJX      -0.104300
     25 C27          0.3480    -0.9280    -0.7460 c5         1 XJX       0.143300
     26 C28         -4.0370    -1.6750     1.2260 ca         1 XJX       0.246100
     27 O29         -3.5810    -2.8440     1.6830 oh         1 XJX      -0.505100
     28 C30         -5.2990    -1.2660     1.6360 ca         1 XJX      -0.236000
     29 C31         -5.8590    -0.0910     1.1520 ca         1 XJX       0.210100
     30 O32         -7.0990     0.1920     1.5870 oh         1 XJX      -0.492100
     31 H11C        -5.3200     3.9720    -0.9630 hc         1 XJX       0.036867
     32 H12C        -4.2980     3.3540     0.3330 hc         1 XJX       0.036867
     33 H13C        -4.0320     2.8450    -1.3390 hc         1 XJX       0.036867
     34 H2          -6.5580     2.3490     0.2750 hc         1 XJX       0.032700
     35 H31C        -5.7440     1.1800    -2.4220 hc         1 XJX       0.036867
     36 H32C        -7.2320     0.7960    -1.5610 hc         1 XJX       0.036867
     37 H33C        -6.9620     2.4320    -2.1620 hc         1 XJX       0.036867
     38 H5          -3.3710     0.9020    -0.8550 ha         1 XJX       0.130000
     39 H10A        -1.4960     1.5650    -0.9230 h1         1 XJX       0.061700
     40 H27A         0.6420    -1.7730    -0.1210 h1         1 XJX       0.073200
     41 H10B        -1.4740     1.2590     0.8150 h1         1 XJX       0.061700
     42 H27B         0.3580    -1.2730    -1.7840 h1         1 XJX       0.073200
     43 H12          0.5120     3.4250     0.4610 ha         1 XJX       0.135000
     44 H13          2.9650     3.5830     0.2750 ha         1 XJX       0.131000
     45 H151         4.9180     1.9620    -1.6030 h1         1 XJX       0.040200
     46 H152         5.0740     2.5810     0.0290 h1         1 XJX       0.040200
     47 H25          3.1900    -0.5090    -0.9580 ha         1 XJX       0.156000
     48 H181         6.8240     0.7750    -1.8000 h1         1 XJX       0.039700
     49 H182         7.3920     1.4020    -0.2500 h1         1 XJX       0.039700
     50 H241         5.9080     0.9960     1.7700 h1         1 XJX       0.039700
     51 H242         4.4100     0.0970     1.5060 h1         1 XJX       0.039700
     52 H191         7.0910    -1.5270    -1.0690 h1         1 XJX       0.038200
     53 H192         8.5910    -0.6350    -0.7930 h1         1 XJX       0.038200
     54 H221         9.3020    -2.1570     0.9140 h1         1 XJX       0.030700
     55 H222         8.2670    -2.4480     2.3130 h1         1 XJX       0.030700
     56 H223         7.8460    -3.1500     0.7440 h1         1 XJX       0.030700
     57 H231         5.6060    -1.9360     0.9520 h1         1 XJX       0.038200
     58 H232         6.1760    -1.3130     2.5040 h1         1 XJX       0.038200
     59 H29         -2.7830    -3.0650     1.1530 ho         1 XJX       0.479000
     60 H30         -5.8660    -1.8890     2.3170 ha         1 XJX       0.166000
     61 H32         -7.4130     1.0310     1.2340 ho         1 XJX       0.432000
@<TRIPOS>BOND
     1     1     2 1   
     2     1    31 1   
     3     1    32 1   
     4     1    33 1   
     5     2     3 1   
     6     2     4 1   
     7     2    34 1   
     8     3    35 1   
     9     3    36 1   
    10     3    37 1   
    11     4     5 ar  
    12     4    29 ar  
    13     5     6 ar  
    14     5    38 1   
    15     6     7 1   
    16     6    26 ar  
    17     7     8 2   
    18     7     9 1   
    19     9    10 1   
    20     9    25 1   
    21    10    11 1   
    22    10    39 1   
    23    10    41 1   
    24    11    12 ar  
    25    11    24 ar  
    26    12    13 ar  
    27    12    43 1   
    28    13    14 ar  
    29    13    44 1   
    30    14    15 1   
    31    14    23 ar  
    32    15    16 1   
    33    15    45 1   
    34    15    46 1   
    35    16    17 1   
    36    16    22 1   
    37    17    18 1   
    38    17    48 1   
    39    17    49 1   
    40    18    19 1   
    41    18    52 1   
    42    18    53 1   
    43    19    20 1   
    44    19    21 1   
    45    20    54 1   
    46    20    55 1   
    47    20    56 1   
    48    21    22 1   
    49    21    57 1   
    50    21    58 1   
    51    22    50 1   
    52    22    51 1   
    53    23    24 ar  
    54    23    47 1   
    55    24    25 1   
    56    25    40 1   
    57    25    42 1   
    58    26    27 1   
    59    26    28 ar  
    60    27    59 1   
    61    28    29 ar  
    62    28    60 1   
    63    29    30 1   
    64    30    61 1   
@<TRIPOS>SUBSTRUCTURE
     1 XJX         1 TEMP              0 ****  ****    0 ROOT
