@<TRIPOS>MOLECULE
XJZ
   56    58     1     0     0
SMALL
No Charge or Current Charge


@<TRIPOS>ATOM
      1 C1          -6.4340     3.7110     9.1600 ca         1 XJZ       0.391900
      2 C2          -6.0240     2.7330    11.1600 ca         1 XJZ       0.381900
      3 C3          -6.2760     3.9630    11.8150 ca         1 XJZ      -0.090900
      4 C4          -6.9850     3.4160    14.1060 c3         1 XJZ       0.144600
      5 C5          -6.5060     3.7340    15.5380 c3         1 XJZ      -0.075400
      6 C6          -6.6470     5.2160    15.9360 c3         1 XJZ       0.164600
      7 C7          -8.5150     6.8000    16.2690 ca         1 XJZ       0.110100
      8 C20         -7.3990     9.1060    12.4630 ca         1 XJZ      -0.186300
      9 C21         -7.6740    10.5170    12.9950 c3         1 XJZ       0.342300
     10 C22         -6.5060     8.8930    11.3910 ca         1 XJZ      -0.069500
     11 C23         -6.2560     7.5920    10.9200 ca         1 XJZ      -0.078500
     12 N2          -6.1080     2.6030     9.8320 nb         1 XJZ      -0.317000
     13 O1          -6.1370     4.1320    13.1850 os         1 XJZ      -0.368100
     14 O4         -13.5090     4.1760    16.3560 o          1 XJZ      -0.741500
     15 C10         -9.5120     9.3820    16.7760 ca         1 XJZ      -0.147000
     16 C11        -10.3980     8.3360    16.4700 ca         1 XJZ      -0.089000
     17 C12         -9.9110     7.0320    16.2120 ca         1 XJZ      -0.075300
     18 C13        -10.8460     5.8640    15.8560 c3         1 XJZ      -0.017100
     19 C14        -12.3640     6.1790    15.8050 c3         1 XJZ      -0.206400
     20 C15        -13.1500     4.9080    15.4460 c          1 XJZ       0.710000
     21 C16         -6.6060     5.0810    10.9950 cp         1 XJZ       0.230500
     22 C17         -6.8680     6.4620    11.5180 cp         1 XJZ      -0.113500
     23 C18         -7.7580     6.6900    12.5950 ca         1 XJZ      -0.078500
     24 C19         -8.0230     7.9900    13.0560 ca         1 XJZ      -0.069500
     25 C8          -7.6330     7.8590    16.5830 ca         1 XJZ      -0.201000
     26 C9          -8.1320     9.1450    16.8330 ca         1 XJZ      -0.103000
     27 F1          -6.8520    10.8220    14.0250 f          1 XJZ      -0.117000
     28 F2          -8.9420    10.6570    13.4470 f          1 XJZ      -0.117000
     29 F3          -7.4940    11.4700    12.0510 f          1 XJZ      -0.117000
     30 N1          -6.5140     3.5850     7.8150 nv         1 XJZ      -1.045900
     31 N3          -5.6060     1.6070    11.8040 nv         1 XJZ      -1.063900
     32 N4          -6.6720     4.9320     9.6560 nb         1 XJZ      -0.266000
     33 O2          -8.0500     5.5290    15.9880 os         1 XJZ      -0.352100
     34 O3         -13.3400     4.6620    14.2650 o          1 XJZ      -0.741500
     35 H1          -8.0350     3.7130    13.9860 h1         1 XJZ       0.058200
     36 H2          -6.9250     2.3330    13.9470 h1         1 XJZ       0.058200
     37 H3          -7.0680     3.1180    16.2490 hc         1 XJZ       0.054700
     38 H4          -5.4540     3.4390    15.6330 hc         1 XJZ       0.054700
     39 H5          -6.1840     5.3710    16.9180 h1         1 XJZ       0.036200
     40 H6          -6.1310     5.8490    15.2020 h1         1 XJZ       0.036200
     41 H7          -6.0030     9.7330    10.9160 ha         1 XJZ       0.135500
     42 H8          -5.5670     7.4560    10.0880 ha         1 XJZ       0.135000
     43 H10         -9.8990    10.3810    16.9680 ha         1 XJZ       0.106000
     44 H11        -11.4610     8.5570    16.4320 ha         1 XJZ       0.130000
     45 H12        -10.5490     5.4570    14.8810 hc         1 XJZ       0.059700
     46 H13        -10.6900     5.0520    16.5780 hc         1 XJZ       0.059700
     47 H14        -12.4900     6.9370    15.0220 hc         1 XJZ       0.022200
     48 H15        -12.6360     6.5220    16.8110 hc         1 XJZ       0.022200
     49 H16         -8.2640     5.8520    13.0650 ha         1 XJZ       0.135000
     50 H17         -8.7200     8.1290    13.8770 ha         1 XJZ       0.135500
     51 H18         -6.5590     7.7060    16.6290 ha         1 XJZ       0.103000
     52 H19         -7.4500     9.9590    17.0690 ha         1 XJZ       0.100000
     53 H20         -6.5430     4.4290     7.2480 hn         1 XJZ       0.480000
     54 H21         -6.1370     2.7470     7.3800 hn         1 XJZ       0.480000
     55 H22         -5.2230     0.8530    11.2380 hn         1 XJZ       0.485500
     56 H23         -5.2120     1.7150    12.7340 hn         1 XJZ       0.485500
@<TRIPOS>BOND
     1     1    12 ar  
     2     1    30 1   
     3     1    32 ar  
     4     2     3 ar  
     5     2    12 ar  
     6     2    31 1   
     7     3    13 1   
     8     3    21 ar  
     9     4     5 1   
    10     4    13 1   
    11     4    35 1   
    12     4    36 1   
    13     5     6 1   
    14     5    37 1   
    15     5    38 1   
    16     6    33 1   
    17     6    39 1   
    18     6    40 1   
    19     7    17 ar  
    20     7    25 ar  
    21     7    33 1   
    22     8     9 1   
    23     8    10 ar  
    24     8    24 ar  
    25     9    27 1   
    26     9    28 1   
    27     9    29 1   
    28    10    11 ar  
    29    10    41 1   
    30    11    22 ar  
    31    11    42 1   
    32    14    20 1   
    33    15    16 ar  
    34    15    26 ar  
    35    15    43 1   
    36    16    17 ar  
    37    16    44 1   
    38    17    18 1   
    39    18    19 1   
    40    18    45 1   
    41    18    46 1   
    42    19    20 1   
    43    19    47 1   
    44    19    48 1   
    45    20    34 1   
    46    21    22 1   
    47    21    32 ar  
    48    22    23 ar  
    49    23    24 ar  
    50    23    49 1   
    51    24    50 1   
    52    25    26 ar  
    53    25    51 1   
    54    26    52 1   
    55    30    53 1   
    56    30    54 1   
    57    31    55 1   
    58    31    56 1   
@<TRIPOS>SUBSTRUCTURE
     1 XJZ         1 TEMP              0 ****  ****    0 ROOT
