@<TRIPOS>MOLECULE
XJZ
   56    58     1     0     0
SMALL
abcg2


@<TRIPOS>ATOM
      1 C1          -6.7430     3.7060     9.3090 ca         1 XJZ       0.391900
      2 C2          -5.9500     2.8780    11.2780 ca         1 XJZ       0.381900
      3 C3          -6.3450     4.0740    11.9320 ca         1 XJZ      -0.090900
      4 C4          -6.9510     3.5130    14.1640 c3         1 XJZ       0.144600
      5 C5          -6.4470     3.6960    15.5790 c3         1 XJZ      -0.075400
      6 C6          -6.5810     5.1140    16.1000 c3         1 XJZ       0.164600
      7 C7          -8.3780     6.6900    16.4020 ca         1 XJZ       0.110100
      8 C20         -7.5650     9.0890    12.4490 ca         1 XJZ      -0.186300
      9 C21         -7.7690    10.4940    12.9270 c3         1 XJZ       0.342300
     10 C22         -6.8580     8.8410    11.2760 ca         1 XJZ      -0.069500
     11 C23         -6.6460     7.5340    10.8690 ca         1 XJZ      -0.078500
     12 N2          -6.1740     2.6920     9.9770 nb         1 XJZ      -0.317000
     13 O1          -6.0720     4.2360    13.2700 os         1 XJZ      -0.368100
     14 O4         -14.1510     5.1530    14.8840 o          1 XJZ      -0.741500
     15 C10         -9.3450     9.2600    16.8350 ca         1 XJZ      -0.147000
     16 C11        -10.2030     8.2410    16.4180 ca         1 XJZ      -0.089000
     17 C12         -9.7470     6.9480    16.1890 ca         1 XJZ      -0.075300
     18 C13        -10.6270     5.8250    15.6980 c3         1 XJZ      -0.017100
     19 C14        -12.0630     6.1970    15.3610 c3         1 XJZ      -0.206400
     20 C15        -12.9010     5.0480    14.7620 c          1 XJZ       0.710000
     21 C16         -6.8470     5.0860    11.1330 cp         1 XJZ       0.230500
     22 C17         -7.1100     6.4590    11.6320 cp         1 XJZ      -0.113500
     23 C18         -7.8120     6.7230    12.8100 ca         1 XJZ      -0.078500
     24 C19         -8.0470     8.0300    13.2130 ca         1 XJZ      -0.069500
     25 C8          -7.5130     7.6950    16.8240 ca         1 XJZ      -0.201000
     26 C9          -8.0020     8.9830    17.0370 ca         1 XJZ      -0.103000
     27 F1          -6.8720    10.8360    13.8910 f          1 XJZ      -0.117000
     28 F2          -8.9920    10.6840    13.4700 f          1 XJZ      -0.117000
     29 F3          -7.6310    11.4080    11.9430 f          1 XJZ      -0.117000
     30 N1          -7.0560     3.4790     7.9980 nv         1 XJZ      -1.045900
     31 N3          -5.3350     1.8860    11.9670 nv         1 XJZ      -1.063900
     32 N4          -7.0460     4.9040     9.8100 nb         1 XJZ      -0.266000
     33 O2          -7.9780     5.4130    16.1500 os         1 XJZ      -0.352100
     34 O3         -12.2970     4.1150    14.1730 o          1 XJZ      -0.741500
     35 H1          -7.9680     3.8960    14.0500 h1         1 XJZ       0.058200
     36 H2          -6.9550     2.4550    13.8970 h1         1 XJZ       0.058200
     37 H3          -7.0060     3.0210    16.2320 hc         1 XJZ       0.054700
     38 H4          -5.3960     3.4010    15.6310 hc         1 XJZ       0.054700
     39 H5          -6.1440     5.1980    17.0990 h1         1 XJZ       0.036200
     40 H6          -6.0780     5.8260    15.4400 h1         1 XJZ       0.036200
     41 H7          -6.4810     9.6610    10.6800 ha         1 XJZ       0.135500
     42 H8          -6.1100     7.3370     9.9510 ha         1 XJZ       0.135000
     43 H10         -9.7290    10.2590    16.9940 ha         1 XJZ       0.106000
     44 H11        -11.2480     8.4690    16.2550 ha         1 XJZ       0.130000
     45 H12        -10.1640     5.3790    14.8160 hc         1 XJZ       0.059700
     46 H13        -10.6250     5.0240    16.4450 hc         1 XJZ       0.059700
     47 H14        -12.0760     7.0080    14.6240 hc         1 XJZ       0.022200
     48 H15        -12.5910     6.5770    16.2380 hc         1 XJZ       0.022200
     49 H16         -8.2020     5.9120    13.4060 ha         1 XJZ       0.135000
     50 H17         -8.6070     8.2210    14.1170 ha         1 XJZ       0.135500
     51 H18         -6.4640     7.4890    16.9780 ha         1 XJZ       0.103000
     52 H19         -7.3230     9.7630    17.3570 ha         1 XJZ       0.100000
     53 H20         -7.2260     4.2910     7.4270 hn         1 XJZ       0.480000
     54 H21         -6.5910     2.7080     7.5460 hn         1 XJZ       0.480000
     55 H22         -4.8940     1.1580    11.4280 hn         1 XJZ       0.485500
     56 H23         -4.9150     2.1090    12.8550 hn         1 XJZ       0.485500
@<TRIPOS>BOND
     1     1    12 ar  
     2     1    30 1   
     3     1    32 ar  
     4     2     3 ar  
     5     2    12 ar  
     6     2    31 1   
     7     3    13 1   
     8     3    21 ar  
     9     4     5 1   
    10     4    13 1   
    11     4    35 1   
    12     4    36 1   
    13     5     6 1   
    14     5    37 1   
    15     5    38 1   
    16     6    33 1   
    17     6    39 1   
    18     6    40 1   
    19     7    17 ar  
    20     7    25 ar  
    21     7    33 1   
    22     8     9 1   
    23     8    10 ar  
    24     8    24 ar  
    25     9    27 1   
    26     9    28 1   
    27     9    29 1   
    28    10    11 ar  
    29    10    41 1   
    30    11    22 ar  
    31    11    42 1   
    32    14    20 1   
    33    15    16 ar  
    34    15    26 ar  
    35    15    43 1   
    36    16    17 ar  
    37    16    44 1   
    38    17    18 1   
    39    18    19 1   
    40    18    45 1   
    41    18    46 1   
    42    19    20 1   
    43    19    47 1   
    44    19    48 1   
    45    20    34 1   
    46    21    22 1   
    47    21    32 ar  
    48    22    23 ar  
    49    23    24 ar  
    50    23    49 1   
    51    24    50 1   
    52    25    26 ar  
    53    25    51 1   
    54    26    52 1   
    55    30    53 1   
    56    30    54 1   
    57    31    55 1   
    58    31    56 1   
@<TRIPOS>SUBSTRUCTURE
     1 XJZ         1 TEMP              0 ****  ****    0 ROOT
