@<TRIPOS>MOLECULE
XK0
   32    33     1     0     0
SMALL
No Charge or Current Charge


@<TRIPOS>ATOM
      1 N13         -3.1850     2.4180     0.7400 nv         1 XK0      -1.006200
      2 C8          -2.6720     1.2050     0.4660 c2         1 XK0       0.701100
      3 N3          -1.4840     0.8900     0.7960 n2         1 XK0      -0.704900
      4 S12         -3.8790     0.2280    -0.3930 ss         1 XK0      -0.400200
      5 C9          -3.0250    -1.3870    -0.5390 c6         1 XK0       0.062600
      6 C4          -1.5090    -1.1920    -0.6780 c6         1 XK0      -0.104400
      7 C1          -0.8790    -0.4370     0.5300 c6         1 XK0       0.239500
      8 C5          -1.0850    -1.2440     1.8530 c3         1 XK0      -0.087100
      9 C2           0.6290    -0.2230     0.2120 ca         1 XK0      -0.106300
     10 C7           1.0030     0.7710    -0.7220 ca         1 XK0      -0.060500
     11 C11          2.3530     0.9820    -1.0530 ca         1 XK0      -0.176000
     12 C14          3.3590     0.2020    -0.4680 ca         1 XK0       0.140100
     13 O15          4.6660     0.4540    -0.8320 os         1 XK0      -0.342100
     14 C16          5.7710    -0.2910    -0.2890 c3         1 XK0       0.148900
     15 C10          3.0040    -0.8020     0.4550 ca         1 XK0      -0.176000
     16 C6           1.6540    -1.0140     0.7880 ca         1 XK0      -0.060500
     17 H131        -2.6960     2.8720     1.4990 hn         1 XK0       0.465500
     18 H132        -4.1940     2.4200     0.8110 hn         1 XK0       0.465500
     19 H91C        -3.2590    -1.9890     0.3500 h1         1 XK0       0.073700
     20 H92C        -3.4270    -1.9150    -1.4160 h1         1 XK0       0.073700
     21 H41C        -1.0250    -2.1720    -0.7930 hc         1 XK0       0.064700
     22 H42C        -1.3060    -0.6440    -1.6080 hc         1 XK0       0.064700
     23 H51C        -2.1340    -1.2490     2.1730 hc         1 XK0       0.042033
     24 H52C        -0.7820    -2.2920     1.7410 hc         1 XK0       0.042033
     25 H53C        -0.5070    -0.8120     2.6790 hc         1 XK0       0.042033
     26 H7           0.2430     1.3870    -1.1970 ha         1 XK0       0.119500
     27 H6           1.4260    -1.8080     1.4940 ha         1 XK0       0.119500
     28 H11          2.6190     1.7540    -1.7710 ha         1 XK0       0.120000
     29 H10          3.7580    -1.4290     0.9220 ha         1 XK0       0.120000
     30 H161         5.6770    -1.3580    -0.5290 h1         1 XK0       0.039367
     31 H162         6.7170     0.0710    -0.7100 h1         1 XK0       0.039367
     32 H163         5.8180    -0.1780     0.8020 h1         1 XK0       0.039367
@<TRIPOS>BOND
     1     1     2 1   
     2     1    17 1   
     3     1    18 1   
     4     2     3 2   
     5     2     4 1   
     6     3     7 1   
     7     4     5 1   
     8     5     6 1   
     9     5    19 1   
    10     5    20 1   
    11     6     7 1   
    12     6    21 1   
    13     6    22 1   
    14     7     8 1   
    15     7     9 1   
    16     8    23 1   
    17     8    24 1   
    18     8    25 1   
    19     9    10 ar  
    20     9    16 ar  
    21    10    11 ar  
    22    10    26 1   
    23    11    12 ar  
    24    11    28 1   
    25    12    13 1   
    26    12    15 ar  
    27    13    14 1   
    28    14    30 1   
    29    14    31 1   
    30    14    32 1   
    31    15    16 ar  
    32    15    29 1   
    33    16    27 1   
@<TRIPOS>SUBSTRUCTURE
     1 XK0         1 TEMP              0 ****  ****    0 ROOT
