@<TRIPOS>MOLECULE
XK0
   32    33     1     0     0
SMALL
abcg2


@<TRIPOS>ATOM
      1 N13         -3.2490     2.2690    -0.2880 nv         1 XK0      -1.006200
      2 C8          -2.7160     1.0250    -0.0740 c2         1 XK0       0.701100
      3 N3          -1.5660     0.8890     0.4290 n2         1 XK0      -0.704900
      4 S12         -3.8110    -0.2360    -0.6830 ss         1 XK0      -0.400200
      5 C9          -2.9090    -1.7040    -0.1270 c6         1 XK0       0.062600
      6 C4          -1.4120    -1.5060    -0.2610 c6         1 XK0      -0.104400
      7 C1          -0.8660    -0.3650     0.6090 c6         1 XK0       0.239500
      8 C5          -0.9670    -0.7350     2.0980 c3         1 XK0      -0.087100
      9 C2           0.6120    -0.1260     0.2910 ca         1 XK0      -0.106300
     10 C7           1.1590     1.1580     0.3030 ca         1 XK0      -0.060500
     11 C11          2.5050     1.3770     0.0700 ca         1 XK0      -0.176000
     12 C14          3.3630     0.3070    -0.1840 ca         1 XK0       0.140100
     13 O15          4.6590     0.6100    -0.4050 os         1 XK0      -0.342100
     14 C16          5.5640    -0.4490    -0.6400 c3         1 XK0       0.148900
     15 C10          2.8400    -0.9820    -0.1950 ca         1 XK0      -0.176000
     16 C6           1.4840    -1.1810     0.0430 ca         1 XK0      -0.060500
     17 H131        -2.7470     3.0180     0.1640 hn         1 XK0       0.465500
     18 H132        -4.2500     2.3620    -0.2130 hn         1 XK0       0.465500
     19 H91C        -3.2020    -1.9490     0.8930 h1         1 XK0       0.073700
     20 H92C        -3.2450    -2.5170    -0.7700 h1         1 XK0       0.073700
     21 H41C        -0.9360    -2.4460     0.0260 hc         1 XK0       0.064700
     22 H42C        -1.1610    -1.3290    -1.3100 hc         1 XK0       0.064700
     23 H51C        -2.0020    -0.9140     2.3950 hc         1 XK0       0.042033
     24 H52C        -0.3880    -1.6320     2.3200 hc         1 XK0       0.042033
     25 H53C        -0.5810     0.0770     2.7150 hc         1 XK0       0.042033
     26 H7           0.5160     2.0060     0.4910 ha         1 XK0       0.119500
     27 H6           1.1240    -2.2020     0.0340 ha         1 XK0       0.119500
     28 H11          2.9000     2.3860     0.0810 ha         1 XK0       0.120000
     29 H10          3.4630    -1.8450    -0.3840 ha         1 XK0       0.120000
     30 H161         5.3110    -1.0130    -1.5420 h1         1 XK0       0.039367
     31 H162         6.5430     0.0050    -0.7770 h1         1 XK0       0.039367
     32 H163         5.6140    -1.1400     0.2050 h1         1 XK0       0.039367
@<TRIPOS>BOND
     1     1     2 1   
     2     1    17 1   
     3     1    18 1   
     4     2     3 2   
     5     2     4 1   
     6     3     7 1   
     7     4     5 1   
     8     5     6 1   
     9     5    19 1   
    10     5    20 1   
    11     6     7 1   
    12     6    21 1   
    13     6    22 1   
    14     7     8 1   
    15     7     9 1   
    16     8    23 1   
    17     8    24 1   
    18     8    25 1   
    19     9    10 ar  
    20     9    16 ar  
    21    10    11 ar  
    22    10    26 1   
    23    11    12 ar  
    24    11    28 1   
    25    12    13 1   
    26    12    15 ar  
    27    13    14 1   
    28    14    30 1   
    29    14    31 1   
    30    14    32 1   
    31    15    16 ar  
    32    15    29 1   
    33    16    27 1   
@<TRIPOS>SUBSTRUCTURE
     1 XK0         1 TEMP              0 ****  ****    0 ROOT
