@<TRIPOS>MOLECULE
XK1
   17    17     1     0     0
SMALL
abcg2


@<TRIPOS>ATOM
      1 N01        -28.1280    34.3420     8.8980 n8         1 XK1      -1.013200
      2 C02        -27.2970    33.2270     9.3250 c3         1 XK1       0.150800
      3 C03        -26.1910    33.6810    10.2660 c5         1 XK1       0.123500
      4 C04        -26.6750    34.2610    11.6170 c5         1 XK1       0.123600
      5 O05        -25.8680    35.4010    11.8520 os         1 XK1      -0.481000
      6 C06        -24.8650    35.4240    10.8410 c5         1 XK1       0.356800
      7 N07        -25.3920    34.7550     9.6910 n7         1 XK1      -0.849400
      8 H012       -28.6510    34.0810     8.0730 hn         1 XK1       0.401000
      9 H011       -28.8160    34.5630     9.6060 hn         1 XK1       0.401000
     10 H021       -27.8550    32.4160     9.8100 h1         1 XK1       0.039700
     11 H022       -26.8300    32.7920     8.4390 h1         1 XK1       0.039700
     12 H031       -25.5420    32.8210    10.4620 h1         1 XK1       0.069700
     13 H041       -27.7260    34.5670    11.5910 h1         1 XK1       0.043200
     14 H042       -26.5650    33.5270    12.4220 h1         1 XK1       0.043200
     15 H061       -24.5990    36.4580    10.6200 h2         1 XK1       0.056700
     16 H062       -23.9680    34.8990    11.1960 h2         1 XK1       0.056700
     17 H071       -26.0310    35.3730     9.1970 hn         1 XK1       0.438000
@<TRIPOS>BOND
     1     1     2 1   
     2     1     8 1   
     3     1     9 1   
     4     2     3 1   
     5     2    10 1   
     6     2    11 1   
     7     3     4 1   
     8     3     7 1   
     9     3    12 1   
    10     4     5 1   
    11     4    13 1   
    12     4    14 1   
    13     5     6 1   
    14     6     7 1   
    15     6    15 1   
    16     6    16 1   
    17     7    17 1   
@<TRIPOS>SUBSTRUCTURE
     1 XK1         1 TEMP              0 ****  ****    0 ROOT
