@<TRIPOS>MOLECULE
XK1
   17    17     1     0     0
SMALL
No Charge or Current Charge


@<TRIPOS>ATOM
      1 N01        -28.0120    34.4220     8.7570 n8         1 XK1      -1.013200
      2 C02        -27.3110    33.2170     9.2870 c3         1 XK1       0.150800
      3 C03        -26.1540    33.5860    10.2670 c5         1 XK1       0.123500
      4 C04        -26.6340    34.1640    11.6340 c5         1 XK1       0.123600
      5 O05        -26.1720    35.5270    11.5960 os         1 XK1      -0.481000
      6 C06        -24.9470    35.4990    10.8590 c5         1 XK1       0.356800
      7 N07        -25.3300    34.6870     9.6950 n7         1 XK1      -0.849400
      8 H012       -28.7930    34.1190     8.1610 hn         1 XK1       0.401000
      9 H011       -28.4770    34.9050     9.5350 hn         1 XK1       0.401000
     10 H021       -28.0340    32.5670     9.7980 h1         1 XK1       0.039700
     11 H022       -26.8920    32.6600     8.4370 h1         1 XK1       0.039700
     12 H031       -25.5470    32.6860    10.4450 h1         1 XK1       0.069700
     13 H041       -27.7240    34.1390    11.7680 h1         1 XK1       0.043200
     14 H042       -26.1580    33.6450    12.4780 h1         1 XK1       0.043200
     15 H061       -24.6400    36.5140    10.5740 h2         1 XK1       0.056700
     16 H062       -24.1640    35.0040    11.4510 h2         1 XK1       0.056700
     17 H071       -26.0120    35.2450     9.1640 hn         1 XK1       0.438000
@<TRIPOS>BOND
     1     1     2 1   
     2     1     8 1   
     3     1     9 1   
     4     2     3 1   
     5     2    10 1   
     6     2    11 1   
     7     3     4 1   
     8     3     7 1   
     9     3    12 1   
    10     4     5 1   
    11     4    13 1   
    12     4    14 1   
    13     5     6 1   
    14     6     7 1   
    15     6    15 1   
    16     6    16 1   
    17     7    17 1   
@<TRIPOS>SUBSTRUCTURE
     1 XK1         1 TEMP              0 ****  ****    0 ROOT
