@<TRIPOS>MOLECULE
XK2
   84    90     1     0     0
SMALL
No Charge or Current Charge


@<TRIPOS>ATOM
      1 C1          -8.4780    14.7150    27.9780 c          1 XK2       0.608000
      2 O1          -7.8550    13.6630    27.9930 o          1 XK2      -0.598000
      3 N2          -8.4210    15.5640    26.8500 n          1 XK2      -0.415800
      4 C2          -7.8660    15.0330    25.5780 c3         1 XK2       0.142300
      5 C3          -8.4260    17.0500    27.0030 c3         1 XK2       0.110200
      6 C4          -9.8340    17.6540    27.2480 c3         1 XK2       0.149300
      7 O4          -9.8120    19.0830    27.0770 oh         1 XK2      -0.671000
      8 C5         -10.4010    17.3380    28.6530 c3         1 XK2       0.149300
      9 O5         -11.6680    18.0160    28.8100 oh         1 XK2      -0.671000
     10 C6         -10.5590    15.8140    28.9090 c3         1 XK2       0.110200
     11 N7          -9.2630    15.0940    29.0910 n          1 XK2      -0.415800
     12 C7          -9.0800    14.3760    30.3790 c3         1 XK2       0.142300
     13 C20         -8.5640    15.5660    24.3330 ca         1 XK2      -0.099300
     14 C21         -9.8760    15.1580    24.0310 ca         1 XK2      -0.095500
     15 C22        -10.5310    15.6590    22.8930 ca         1 XK2      -0.102500
     16 C23         -9.8770    16.5740    22.0470 ca         1 XK2      -0.034500
     17 C24        -10.5290    17.0810    20.9070 ca         1 XK2      -0.099500
     18 C25         -9.8700    17.9940    20.0660 ca         1 XK2      -0.104500
     19 C26         -8.5580    18.4030    20.3620 ca         1 XK2      -0.107500
     20 C27         -7.9030    17.9000    21.4990 ca         1 XK2      -0.096000
     21 C28         -8.5580    16.9840    22.3440 ca         1 XK2      -0.039500
     22 C29         -7.9060    16.4780    23.4840 ca         1 XK2      -0.088500
     23 C31         -7.3020    17.5650    27.9480 c3         1 XK2      -0.051100
     24 C32         -5.9160    17.1200    27.4980 ca         1 XK2      -0.086300
     25 C33         -5.2340    16.0980    28.1860 ca         1 XK2      -0.105500
     26 C34         -3.9660    15.6740    27.7520 ca         1 XK2      -0.109500
     27 C35         -3.3720    16.2700    26.6270 ca         1 XK2      -0.111500
     28 C36         -4.0470    17.2920    25.9370 ca         1 XK2      -0.109500
     29 C37         -5.3140    17.7160    26.3710 ca         1 XK2      -0.105500
     30 C61        -11.5380    15.0710    27.9550 c3         1 XK2      -0.051100
     31 C62        -11.8270    13.6470    28.4160 ca         1 XK2      -0.086300
     32 C63        -12.6620    13.4200    29.5280 ca         1 XK2      -0.105500
     33 C64        -12.9110    12.1100    29.9720 ca         1 XK2      -0.109500
     34 C65        -12.3280    11.0190    29.3060 ca         1 XK2      -0.111500
     35 C66        -11.4960    11.2390    28.1950 ca         1 XK2      -0.109500
     36 C67        -11.2470    12.5490    27.7510 ca         1 XK2      -0.105500
     37 C70         -9.2540    15.2630    31.6060 ca         1 XK2      -0.099300
     38 C71        -10.3810    15.1130    32.4380 ca         1 XK2      -0.088500
     39 C72        -10.5530    15.9480    33.5580 ca         1 XK2      -0.039500
     40 C73        -11.6830    15.8020    34.3850 ca         1 XK2      -0.096000
     41 C74        -11.8520    16.6380    35.5020 ca         1 XK2      -0.107500
     42 C75        -10.8930    17.6230    35.7950 ca         1 XK2      -0.104500
     43 C76         -9.7630    17.7730    34.9720 ca         1 XK2      -0.099500
     44 C77         -9.5900    16.9380    33.8520 ca         1 XK2      -0.034500
     45 C78         -8.4620    17.0830    33.0240 ca         1 XK2      -0.102500
     46 C79         -8.2960    16.2490    31.9060 ca         1 XK2      -0.095500
     47 H21A        -6.7940    15.2690    25.5360 h1         1 XK2       0.068450
     48 H22A        -7.9530    13.9390    25.5630 h1         1 XK2       0.068450
     49 H3          -8.1470    17.4580    26.0240 h1         1 XK2       0.070200
     50 H4         -10.5110    17.2220    26.4980 h1         1 XK2       0.059700
     51 HO4        -10.6290    19.3920    27.5340 ho         1 XK2       0.458000
     52 H5          -9.6970    17.7230    29.4030 h1         1 XK2       0.059700
     53 HO5        -11.9150    17.9690    29.7610 ho         1 XK2       0.458000
     54 H6         -11.0680    15.7710    29.8800 h1         1 XK2       0.070200
     55 H71A        -9.7890    13.5390    30.4190 h1         1 XK2       0.068450
     56 H72         -8.0710    13.9450    30.4220 h1         1 XK2       0.068450
     57 H21        -10.3900    14.4510    24.6790 ha         1 XK2       0.117000
     58 H22        -11.5460    15.3370    22.6720 ha         1 XK2       0.115500
     59 H24        -11.5440    16.7690    20.6720 ha         1 XK2       0.113500
     60 H25        -10.3760    18.3850    19.1860 ha         1 XK2       0.114000
     61 H26         -8.0500    19.1100    19.7100 ha         1 XK2       0.114000
     62 H27         -6.8880    18.2210    21.7210 ha         1 XK2       0.113500
     63 H29         -6.8920    16.7980    23.7140 ha         1 XK2       0.117000
     64 H311        -7.3320    18.6600    27.9820 hc         1 XK2       0.066200
     65 H312        -7.4920    17.2300    28.9730 hc         1 XK2       0.066200
     66 H33         -5.6890    15.6230    29.0530 ha         1 XK2       0.113250
     67 H34         -3.4460    14.8820    28.2860 ha         1 XK2       0.113250
     68 H35         -2.3920    15.9410    26.2900 ha         1 XK2       0.112500
     69 H36         -3.5880    17.7540    25.0650 ha         1 XK2       0.113250
     70 H37         -5.8310    18.5050    25.8300 ha         1 XK2       0.113250
     71 H611       -12.4810    15.6280    27.8980 hc         1 XK2       0.066200
     72 H612       -11.1360    15.0640    26.9360 hc         1 XK2       0.066200
     73 H63        -13.1150    14.2590    30.0510 ha         1 XK2       0.113250
     74 H64        -13.5550    11.9410    30.8330 ha         1 XK2       0.113250
     75 H65        -12.5200    10.0050    29.6500 ha         1 XK2       0.112500
     76 H66        -11.0420    10.3960    27.6800 ha         1 XK2       0.113250
     77 H67        -10.5940    12.7090    26.8960 ha         1 XK2       0.113250
     78 H71        -11.1260    14.3540    32.2090 ha         1 XK2       0.117000
     79 H73        -12.4300    15.0420    34.1650 ha         1 XK2       0.113500
     80 H74        -12.7250    16.5240    36.1400 ha         1 XK2       0.114000
     81 H75        -11.0240    18.2700    36.6600 ha         1 XK2       0.114000
     82 H76         -9.0250    18.5380    35.2050 ha         1 XK2       0.113500
     83 H78         -7.7150    17.8420    33.2440 ha         1 XK2       0.115500
     84 H79         -7.4210    16.3690    31.2710 ha         1 XK2       0.117000
@<TRIPOS>BOND
     1     1     2 2   
     2     1     3 1   
     3     1    11 1   
     4     3     4 1   
     5     3     5 1   
     6     4    13 1   
     7     4    47 1   
     8     4    48 1   
     9     5     6 1   
    10     5    23 1   
    11     5    49 1   
    12     6     7 1   
    13     6     8 1   
    14     6    50 1   
    15     7    51 1   
    16     8     9 1   
    17     8    10 1   
    18     8    52 1   
    19     9    53 1   
    20    10    11 1   
    21    10    30 1   
    22    10    54 1   
    23    11    12 1   
    24    12    37 1   
    25    12    55 1   
    26    12    56 1   
    27    13    14 ar  
    28    13    22 ar  
    29    14    15 ar  
    30    14    57 1   
    31    15    16 ar  
    32    15    58 1   
    33    16    17 ar  
    34    16    21 ar  
    35    17    18 ar  
    36    17    59 1   
    37    18    19 ar  
    38    18    60 1   
    39    19    20 ar  
    40    19    61 1   
    41    20    21 ar  
    42    20    62 1   
    43    21    22 ar  
    44    22    63 1   
    45    23    24 1   
    46    23    64 1   
    47    23    65 1   
    48    24    25 ar  
    49    24    29 ar  
    50    25    26 ar  
    51    25    66 1   
    52    26    27 ar  
    53    26    67 1   
    54    27    28 ar  
    55    27    68 1   
    56    28    29 ar  
    57    28    69 1   
    58    29    70 1   
    59    30    31 1   
    60    30    71 1   
    61    30    72 1   
    62    31    32 ar  
    63    31    36 ar  
    64    32    33 ar  
    65    32    73 1   
    66    33    34 ar  
    67    33    74 1   
    68    34    35 ar  
    69    34    75 1   
    70    35    36 ar  
    71    35    76 1   
    72    36    77 1   
    73    37    38 ar  
    74    37    46 ar  
    75    38    39 ar  
    76    38    78 1   
    77    39    40 ar  
    78    39    44 ar  
    79    40    41 ar  
    80    40    79 1   
    81    41    42 ar  
    82    41    80 1   
    83    42    43 ar  
    84    42    81 1   
    85    43    44 ar  
    86    43    82 1   
    87    44    45 ar  
    88    45    46 ar  
    89    45    83 1   
    90    46    84 1   
@<TRIPOS>SUBSTRUCTURE
     1 XK2         1 TEMP              0 ****  ****    0 ROOT
