@<TRIPOS>MOLECULE
XK2
   84    90     1     0     0
SMALL
abcg2


@<TRIPOS>ATOM
      1 C1          -8.4060    14.7950    27.9400 c          1 XK2       0.608000
      2 O1          -7.8500    13.6920    27.9540 o          1 XK2      -0.598000
      3 N2          -8.3160    15.6400    26.8580 n          1 XK2      -0.415800
      4 C2          -7.7410    15.0890    25.6220 c3         1 XK2       0.142300
      5 C3          -8.2510    17.1040    26.9800 c3         1 XK2       0.110200
      6 C4          -9.6260    17.7320    27.1950 c3         1 XK2       0.149300
      7 O4          -9.4880    19.1380    27.0000 oh         1 XK2      -0.671000
      8 C5         -10.2160    17.4480    28.5620 c3         1 XK2       0.149300
      9 O5         -11.4640    18.1480    28.6060 oh         1 XK2      -0.671000
     10 C6         -10.4220    15.9580    28.8530 c3         1 XK2       0.110200
     11 N7          -9.1460    15.2380    29.0180 n          1 XK2      -0.415800
     12 C7          -9.0130    14.4390    30.2470 c3         1 XK2       0.142300
     13 C20         -8.5090    15.5420    24.4100 ca         1 XK2      -0.099300
     14 C21         -9.8230    15.0550    24.1920 ca         1 XK2      -0.095500
     15 C22        -10.5590    15.4690    23.1150 ca         1 XK2      -0.102500
     16 C23        -10.0270    16.4010    22.1880 ca         1 XK2      -0.034500
     17 C24        -10.7620    16.8590    21.0680 ca         1 XK2      -0.099500
     18 C25        -10.2150    17.7630    20.1920 ca         1 XK2      -0.104500
     19 C26         -8.9040    18.2490    20.3960 ca         1 XK2      -0.107500
     20 C27         -8.1660    17.8230    21.4720 ca         1 XK2      -0.096000
     21 C28         -8.7030    16.8910    22.3930 ca         1 XK2      -0.039500
     22 C29         -7.9710    16.4360    23.5180 ca         1 XK2      -0.088500
     23 C31         -7.1750    17.5810    27.9720 c3         1 XK2      -0.051100
     24 C32         -5.7990    17.1250    27.5630 ca         1 XK2      -0.086300
     25 C33         -5.1760    16.0620    28.2140 ca         1 XK2      -0.105500
     26 C34         -3.9300    15.6010    27.7970 ca         1 XK2      -0.109500
     27 C35         -3.2880    16.2030    26.7200 ca         1 XK2      -0.111500
     28 C36         -3.8980    17.2710    26.0660 ca         1 XK2      -0.109500
     29 C37         -5.1420    17.7270    26.4870 ca         1 XK2      -0.105500
     30 C61        -11.3980    15.2620    27.8890 c3         1 XK2      -0.051100
     31 C62        -11.7920    13.8950    28.3820 ca         1 XK2      -0.086300
     32 C63        -12.6450    13.7560    29.4790 ca         1 XK2      -0.105500
     33 C64        -12.9590    12.5000    29.9850 ca         1 XK2      -0.109500
     34 C65        -12.4240    11.3570    29.3960 ca         1 XK2      -0.111500
     35 C66        -11.5820    11.4820    28.2960 ca         1 XK2      -0.109500
     36 C67        -11.2710    12.7430    27.7940 ca         1 XK2      -0.105500
     37 C70         -9.2860    15.2550    31.4820 ca         1 XK2      -0.099300
     38 C71        -10.3260    14.9370    32.3180 ca         1 XK2      -0.088500
     39 C72        -10.6010    15.6990    33.4800 ca         1 XK2      -0.039500
     40 C73        -11.6750    15.3880    34.3490 ca         1 XK2      -0.096000
     41 C74        -11.9210    16.1530    35.4620 ca         1 XK2      -0.107500
     42 C75        -11.1020    17.2650    35.7580 ca         1 XK2      -0.104500
     43 C76        -10.0540    17.5930    34.9340 ca         1 XK2      -0.099500
     44 C77         -9.7750    16.8240    33.7790 ca         1 XK2      -0.034500
     45 C78         -8.7030    17.1310    32.9030 ca         1 XK2      -0.102500
     46 C79         -8.4660    16.3690    31.7910 ca         1 XK2      -0.095500
     47 H21A        -6.6920    15.3810    25.5320 h1         1 XK2       0.068450
     48 H22A        -7.7770    14.0070    25.7090 h1         1 XK2       0.068450
     49 H3          -7.9470    17.4530    25.9940 h1         1 XK2       0.070200
     50 H4         -10.2960    17.3250    26.4300 h1         1 XK2       0.059700
     51 HO4        -10.3010    19.5430    27.3350 ho         1 XK2       0.458000
     52 H5          -9.5490    17.8500    29.3300 h1         1 XK2       0.059700
     53 HO5        -11.7200    18.2670    29.5290 ho         1 XK2       0.458000
     54 H6         -10.8830    15.9340    29.8400 h1         1 XK2       0.070200
     55 H71A        -9.6790    13.5720    30.2210 h1         1 XK2       0.068450
     56 H72         -7.9920    14.0630    30.2700 h1         1 XK2       0.068450
     57 H21        -10.2390    14.3400    24.8910 ha         1 XK2       0.117000
     58 H22        -11.5600    15.0870    22.9550 ha         1 XK2       0.115500
     59 H24        -11.7670    16.4830    20.9150 ha         1 XK2       0.113500
     60 H25        -10.7860    18.1080    19.3400 ha         1 XK2       0.114000
     61 H26         -8.4840    18.9620    19.6980 ha         1 XK2       0.114000
     62 H27         -7.1610    18.1950    21.6320 ha         1 XK2       0.113500
     63 H29         -6.9670    16.8160    23.6750 ha         1 XK2       0.117000
     64 H311        -7.2200    18.6700    28.0000 hc         1 XK2       0.066200
     65 H312        -7.3970    17.2150    28.9710 hc         1 XK2       0.066200
     66 H33         -5.6740    15.5860    29.0490 ha         1 XK2       0.113250
     67 H34         -3.4630    14.7710    28.3130 ha         1 XK2       0.113250
     68 H35         -2.3200    15.8450    26.3930 ha         1 XK2       0.112500
     69 H36         -3.4040    17.7480    25.2290 ha         1 XK2       0.113250
     70 H37         -5.6150    18.5530    25.9690 ha         1 XK2       0.113250
     71 H611       -12.2800    15.9000    27.8060 hc         1 XK2       0.066200
     72 H612       -10.9570    15.1850    26.8970 hc         1 XK2       0.066200
     73 H63        -13.0570    14.6420    29.9490 ha         1 XK2       0.113250
     74 H64        -13.6200    12.4130    30.8390 ha         1 XK2       0.113250
     75 H65        -12.6640    10.3780    29.7900 ha         1 XK2       0.112500
     76 H66        -11.1640    10.5990    27.8290 ha         1 XK2       0.113250
     77 H67        -10.6070    12.8350    26.9450 ha         1 XK2       0.113250
     78 H71        -10.9670    14.0940    32.0840 ha         1 XK2       0.117000
     79 H73        -12.3010    14.5350    34.1180 ha         1 XK2       0.113500
     80 H74        -12.7450    15.9070    36.1190 ha         1 XK2       0.114000
     81 H75        -11.3060    17.8600    36.6390 ha         1 XK2       0.114000
     82 H76         -9.4240    18.4460    35.1570 ha         1 XK2       0.113500
     83 H78         -8.0700    17.9800    33.1300 ha         1 XK2       0.115500
     84 H79         -7.6410    16.6120    31.1320 ha         1 XK2       0.117000
@<TRIPOS>BOND
     1     1     2 2   
     2     1     3 1   
     3     1    11 1   
     4     3     4 1   
     5     3     5 1   
     6     4    13 1   
     7     4    47 1   
     8     4    48 1   
     9     5     6 1   
    10     5    23 1   
    11     5    49 1   
    12     6     7 1   
    13     6     8 1   
    14     6    50 1   
    15     7    51 1   
    16     8     9 1   
    17     8    10 1   
    18     8    52 1   
    19     9    53 1   
    20    10    11 1   
    21    10    30 1   
    22    10    54 1   
    23    11    12 1   
    24    12    37 1   
    25    12    55 1   
    26    12    56 1   
    27    13    14 ar  
    28    13    22 ar  
    29    14    15 ar  
    30    14    57 1   
    31    15    16 ar  
    32    15    58 1   
    33    16    17 ar  
    34    16    21 ar  
    35    17    18 ar  
    36    17    59 1   
    37    18    19 ar  
    38    18    60 1   
    39    19    20 ar  
    40    19    61 1   
    41    20    21 ar  
    42    20    62 1   
    43    21    22 ar  
    44    22    63 1   
    45    23    24 1   
    46    23    64 1   
    47    23    65 1   
    48    24    25 ar  
    49    24    29 ar  
    50    25    26 ar  
    51    25    66 1   
    52    26    27 ar  
    53    26    67 1   
    54    27    28 ar  
    55    27    68 1   
    56    28    29 ar  
    57    28    69 1   
    58    29    70 1   
    59    30    31 1   
    60    30    71 1   
    61    30    72 1   
    62    31    32 ar  
    63    31    36 ar  
    64    32    33 ar  
    65    32    73 1   
    66    33    34 ar  
    67    33    74 1   
    68    34    35 ar  
    69    34    75 1   
    70    35    36 ar  
    71    35    76 1   
    72    36    77 1   
    73    37    38 ar  
    74    37    46 ar  
    75    38    39 ar  
    76    38    78 1   
    77    39    40 ar  
    78    39    44 ar  
    79    40    41 ar  
    80    40    79 1   
    81    41    42 ar  
    82    41    80 1   
    83    42    43 ar  
    84    42    81 1   
    85    43    44 ar  
    86    43    82 1   
    87    44    45 ar  
    88    45    46 ar  
    89    45    83 1   
    90    46    84 1   
@<TRIPOS>SUBSTRUCTURE
     1 XK2         1 TEMP              0 ****  ****    0 ROOT
