@<TRIPOS>MOLECULE
XK3
   43    45     1     0     0
SMALL
No Charge or Current Charge


@<TRIPOS>ATOM
      1 C01         28.2910     8.8020   -24.0530 c3         1 XK3      -0.087100
      2 C02         28.5670     9.1960   -22.5880 c3         1 XK3      -0.012100
      3 C03         27.4620    10.0290   -21.9810 cc         1 XK3      -0.110300
      4 C04         27.3850    11.4120   -22.3010 cc         1 XK3      -0.137000
      5 C05         26.3800    12.0970   -21.6770 cd         1 XK3      -0.266000
      6 S06         25.4590    11.0360   -20.6080 ss         1 XK3       0.270000
      7 C07         26.4800     9.6560   -21.0770 cd         1 XK3      -0.226500
      8 C08         26.1630     8.3190   -20.5300 ca         1 XK3       0.312500
      9 C09         26.4710     7.0930   -21.2050 ca         1 XK3       0.337900
     10 N10         26.2180     5.8610   -20.6760 nb         1 XK3      -0.738000
     11 C11         25.6600     5.8780   -19.4630 ca         1 XK3       0.549900
     12 N12         25.4810     4.6000   -19.0500 nv         1 XK3      -1.052900
     13 C13         25.3380     7.0920   -18.7490 ca         1 XK3       0.295300
     14 C14         24.7090     7.0910   -17.3370 c6         1 XK3      -0.106000
     15 C15         25.7520     7.4590   -16.2440 c6         1 XK3      -0.068400
     16 C16         25.1330     7.4020   -14.8240 c6         1 XK3      -0.058400
     17 C17         23.8810     8.3170   -14.7110 c6         1 XK3      -0.184700
     18 C18         23.2680     8.3000   -13.2880 c          1 XK3       0.709000
     19 O19         23.2510     9.3470   -12.6580 o          1 XK3      -0.738500
     20 O20         22.8270     7.2450   -12.8540 o          1 XK3      -0.738500
     21 C21         22.8370     7.9550   -15.8060 c6         1 XK3      -0.058400
     22 C22         23.4620     8.0180   -17.2230 c6         1 XK3      -0.068400
     23 N23         25.6030     8.3170   -19.2890 nb         1 XK3      -0.626000
     24 H011        28.2180     9.6950   -24.6850 hc         1 XK3       0.031700
     25 H012        29.1030     8.1740   -24.4390 hc         1 XK3       0.031700
     26 H013        27.3520     8.2440   -24.1410 hc         1 XK3       0.031700
     27 H021        28.7610     8.3000   -21.9890 hc         1 XK3       0.044700
     28 H022        29.5040     9.7660   -22.5590 hc         1 XK3       0.044700
     29 H04         28.0830    11.8790   -22.9910 ha         1 XK3       0.121000
     30 H05         26.1250    13.1460   -21.7590 h4         1 XK3       0.143000
     31 H09         26.9010     7.0900   -22.2020 h4         1 XK3       0.022100
     32 H121        25.9650     3.8990   -19.6000 hn         1 XK3       0.479500
     33 H122        25.3940     4.4190   -18.0550 hn         1 XK3       0.479500
     34 H14         24.3590     6.0720   -17.1230 hc         1 XK3       0.039700
     35 H151        26.6070     6.7720   -16.2990 hc         1 XK3       0.032450
     36 H152        26.1510     8.4660   -16.4300 hc         1 XK3       0.032450
     37 H221        23.7360     9.0580   -17.4490 hc         1 XK3       0.032450
     38 H222        22.7100     7.7250   -17.9690 hc         1 XK3       0.032450
     39 H161        24.8630     6.3640   -14.5840 hc         1 XK3       0.041700
     40 H162        25.8850     7.7060   -14.0830 hc         1 XK3       0.041700
     41 H17         24.2100     9.3490   -14.8980 hc         1 XK3       0.034700
     42 H211        22.4360     6.9480   -15.6260 hc         1 XK3       0.041700
     43 H212        21.9830     8.6450   -15.7490 hc         1 XK3       0.041700
@<TRIPOS>BOND
     1     1     2 1   
     2     1    24 1   
     3     1    25 1   
     4     1    26 1   
     5     2     3 1   
     6     2    27 1   
     7     2    28 1   
     8     3     4 1   
     9     3     7 2   
    10     4     5 2   
    11     4    29 1   
    12     5     6 1   
    13     5    30 1   
    14     6     7 1   
    15     7     8 1   
    16     8     9 ar  
    17     8    23 ar  
    18     9    10 ar  
    19     9    31 1   
    20    10    11 ar  
    21    11    12 1   
    22    11    13 ar  
    23    12    32 1   
    24    12    33 1   
    25    13    14 1   
    26    13    23 ar  
    27    14    15 1   
    28    14    22 1   
    29    14    34 1   
    30    15    16 1   
    31    15    35 1   
    32    15    36 1   
    33    16    17 1   
    34    16    39 1   
    35    16    40 1   
    36    17    18 1   
    37    17    21 1   
    38    17    41 1   
    39    18    19 1   
    40    18    20 1   
    41    21    22 1   
    42    21    42 1   
    43    21    43 1   
    44    22    37 1   
    45    22    38 1   
@<TRIPOS>SUBSTRUCTURE
     1 XK3         1 TEMP              0 ****  ****    0 ROOT
