@<TRIPOS>MOLECULE
XK3
   43    45     1     0     0
SMALL
abcg2


@<TRIPOS>ATOM
      1 C01         27.8440     8.8290   -24.2070 c3         1 XK3      -0.087100
      2 C02         28.5130     8.9880   -22.8350 c3         1 XK3      -0.012100
      3 C03         27.7880     9.9530   -21.9390 cc         1 XK3      -0.110300
      4 C04         27.9730    11.3640   -22.0600 cc         1 XK3      -0.137000
      5 C05         27.2560    12.0910   -21.1570 cd         1 XK3      -0.266000
      6 S06         26.3360    11.0750   -20.1200 ss         1 XK3       0.270000
      7 C07         26.9090     9.6350   -20.9230 cd         1 XK3      -0.226500
      8 C08         26.4190     8.3460   -20.4390 ca         1 XK3       0.312500
      9 C09         26.3160     7.2050   -21.2270 ca         1 XK3       0.337900
     10 N10         25.8640     6.0460   -20.7450 nb         1 XK3      -0.738000
     11 C11         25.4770     5.9980   -19.4710 ca         1 XK3       0.549900
     12 N12         24.9720     4.8130   -19.0140 nv         1 XK3      -1.052900
     13 C13         25.5380     7.1660   -18.6510 ca         1 XK3       0.295300
     14 C14         25.0260     7.1510   -17.2330 c6         1 XK3      -0.106000
     15 C15         25.6480     8.2260   -16.3370 c6         1 XK3      -0.068400
     16 C16         25.0980     8.1340   -14.9130 c6         1 XK3      -0.058400
     17 C17         23.5660     8.2550   -14.8810 c6         1 XK3      -0.184700
     18 C18         23.0580     8.1740   -13.4280 c          1 XK3       0.709000
     19 O19         22.7880     9.2650   -12.8560 o          1 XK3      -0.738500
     20 O20         22.9720     7.0330   -12.9010 o          1 XK3      -0.738500
     21 C21         22.9360     7.2040   -15.7980 c6         1 XK3      -0.058400
     22 C22         23.4880     7.2810   -17.2210 c6         1 XK3      -0.068400
     23 N23         26.0070     8.2890   -19.1530 nb         1 XK3      -0.626000
     24 H011        27.8020     9.7870   -24.7280 hc         1 XK3       0.031700
     25 H012        28.4020     8.1260   -24.8290 hc         1 XK3       0.031700
     26 H013        26.8210     8.4600   -24.1090 hc         1 XK3       0.031700
     27 H021        28.6020     8.0150   -22.3500 hc         1 XK3       0.044700
     28 H022        29.5310     9.3560   -22.9830 hc         1 XK3       0.044700
     29 H04         28.6340    11.8070   -22.7930 ha         1 XK3       0.121000
     30 H05         27.2290    13.1620   -21.0320 h4         1 XK3       0.143000
     31 H09         26.5780     7.2160   -22.2750 h4         1 XK3       0.022100
     32 H121        25.1730     4.0010   -19.5780 hn         1 XK3       0.479500
     33 H122        24.9320     4.6490   -18.0220 hn         1 XK3       0.479500
     34 H14         25.2780     6.1810   -16.7880 hc         1 XK3       0.039700
     35 H151        26.7360     8.1190   -16.3330 hc         1 XK3       0.032450
     36 H152        25.4290     9.2120   -16.7530 hc         1 XK3       0.032450
     37 H221        23.2270     8.2430   -17.6740 hc         1 XK3       0.032450
     38 H222        23.0400     6.5030   -17.8420 hc         1 XK3       0.032450
     39 H161        25.3860     7.1750   -14.4710 hc         1 XK3       0.041700
     40 H162        25.5420     8.9180   -14.2950 hc         1 XK3       0.041700
     41 H17         23.3040     9.2480   -15.2590 hc         1 XK3       0.034700
     42 H211        23.1350     6.2120   -15.3840 hc         1 XK3       0.041700
     43 H212        21.8490     7.3280   -15.8180 hc         1 XK3       0.041700
@<TRIPOS>BOND
     1     1     2 1   
     2     1    24 1   
     3     1    25 1   
     4     1    26 1   
     5     2     3 1   
     6     2    27 1   
     7     2    28 1   
     8     3     4 1   
     9     3     7 2   
    10     4     5 2   
    11     4    29 1   
    12     5     6 1   
    13     5    30 1   
    14     6     7 1   
    15     7     8 1   
    16     8     9 ar  
    17     8    23 ar  
    18     9    10 ar  
    19     9    31 1   
    20    10    11 ar  
    21    11    12 1   
    22    11    13 ar  
    23    12    32 1   
    24    12    33 1   
    25    13    14 1   
    26    13    23 ar  
    27    14    15 1   
    28    14    22 1   
    29    14    34 1   
    30    15    16 1   
    31    15    35 1   
    32    15    36 1   
    33    16    17 1   
    34    16    39 1   
    35    16    40 1   
    36    17    18 1   
    37    17    21 1   
    38    17    41 1   
    39    18    19 1   
    40    18    20 1   
    41    21    22 1   
    42    21    42 1   
    43    21    43 1   
    44    22    37 1   
    45    22    38 1   
@<TRIPOS>SUBSTRUCTURE
     1 XK3         1 TEMP              0 ****  ****    0 ROOT
