@<TRIPOS>MOLECULE
XK4
   14    14     1     0     0
SMALL
abcg2


@<TRIPOS>ATOM
      1 N01         -8.7630    25.7210     3.2350 n8         1 XK4      -0.988200
      2 C02         -7.5540    25.0410     2.8490 c5         1 XK4       0.345700
      3 C03         -7.7530    23.5120     2.8470 c5         1 XK4      -0.132400
      4 C04         -7.6770    23.1610     1.3600 c5         1 XK4       0.098600
      5 O05         -7.7590    24.4100     0.6780 os         1 XK4      -0.244300
      6 N06         -7.1010    25.3510     1.4880 n7         1 XK4      -0.618900
      7 H011        -8.6490    26.7200     3.1140 hn         1 XK4       0.411500
      8 H012        -9.5310    25.4450     2.6340 hn         1 XK4       0.411500
      9 H021        -6.7540    25.3500     3.5260 h2         1 XK4       0.073700
     10 H032        -6.9760    23.0080     3.4200 hc         1 XK4       0.067200
     11 H031        -8.7130    23.2450     3.2890 hc         1 XK4       0.067200
     12 H042        -6.7350    22.6550     1.1180 h1         1 XK4       0.054200
     13 H041        -8.5020    22.5370     1.0150 h1         1 XK4       0.054200
     14 H061        -6.1040    25.1360     1.4270 hn         1 XK4       0.401000
@<TRIPOS>BOND
     1     1     2 1   
     2     1     7 1   
     3     1     8 1   
     4     2     3 1   
     5     2     6 1   
     6     2     9 1   
     7     3     4 1   
     8     3    10 1   
     9     3    11 1   
    10     4     5 1   
    11     4    12 1   
    12     4    13 1   
    13     5     6 1   
    14     6    14 1   
@<TRIPOS>SUBSTRUCTURE
     1 XK4         1 TEMP              0 ****  ****    0 ROOT
