@<TRIPOS>MOLECULE
XK4
   14    14     1     0     0
SMALL
No Charge or Current Charge


@<TRIPOS>ATOM
      1 N01         -8.7530    25.7240     3.1160 n8         1 XK4      -0.988200
      2 C02         -7.5320    24.9950     2.9730 c5         1 XK4       0.345700
      3 C03         -7.7350    23.4600     2.9030 c5         1 XK4      -0.132400
      4 C04         -7.7270    23.1790     1.3810 c5         1 XK4       0.098600
      5 O05         -7.9510    24.4650     0.7730 os         1 XK4      -0.244300
      6 N06         -7.2330    25.4120     1.6130 n7         1 XK4      -0.618900
      7 H011        -8.5220    26.7090     2.9690 hn         1 XK4       0.411500
      8 H012        -9.2840    25.4780     2.2780 hn         1 XK4       0.411500
      9 H021        -6.7410    25.2760     3.6870 h2         1 XK4       0.073700
     10 H032        -6.9270    22.9210     3.4090 hc         1 XK4       0.067200
     11 H031        -8.6740    23.1440     3.3720 hc         1 XK4       0.067200
     12 H042        -6.7500    22.8000     1.0500 h1         1 XK4       0.054200
     13 H041        -8.5060    22.4720     1.0660 h1         1 XK4       0.054200
     14 H061        -6.2360    25.2570     1.4110 hn         1 XK4       0.401000
@<TRIPOS>BOND
     1     1     2 1   
     2     1     7 1   
     3     1     8 1   
     4     2     3 1   
     5     2     6 1   
     6     2     9 1   
     7     3     4 1   
     8     3    10 1   
     9     3    11 1   
    10     4     5 1   
    11     4    12 1   
    12     4    13 1   
    13     5     6 1   
    14     6    14 1   
@<TRIPOS>SUBSTRUCTURE
     1 XK4         1 TEMP              0 ****  ****    0 ROOT
