@<TRIPOS>MOLECULE
XK7
   15    15     1     0     0
SMALL
No Charge or Current Charge


@<TRIPOS>ATOM
      1 N01        -13.4440     3.2630    14.1720 nt         1 XK7      -0.592000
      2 C02        -13.7620     2.6910    12.9920 c          1 XK7       0.640100
      3 O03        -12.9810     2.7300    12.0520 o          1 XK7      -0.625100
      4 C04        -15.1520     1.9960    12.9580 cx         1 XK7       0.009200
      5 N05        -15.4710     1.0120    14.0060 n8         1 XK7      -1.013200
      6 C06        -16.3090     2.8570    12.4940 cx         1 XK7      -0.117900
      7 C07        -15.7910     1.7570    11.6040 cx         1 XK7      -0.117900
      8 H011       -12.5530     3.7220    14.2810 hn         1 XK7       0.324500
      9 H012       -14.0900     3.1810    14.9430 hn         1 XK7       0.324500
     10 H052       -16.3860     0.5820    13.8190 hn         1 XK7       0.417500
     11 H051       -14.8240     0.2130    13.9490 hn         1 XK7       0.417500
     12 H061       -17.2800     2.7150    12.9630 hc         1 XK7       0.083200
     13 H062       -16.0970     3.8830    12.2030 hc         1 XK7       0.083200
     14 H071       -16.4160     0.8770    11.4720 hc         1 XK7       0.083200
     15 H072       -15.2400     2.0510    10.7130 hc         1 XK7       0.083200
@<TRIPOS>BOND
     1     1     2 1   
     2     1     8 1   
     3     1     9 1   
     4     2     3 2   
     5     2     4 1   
     6     4     5 1   
     7     4     6 1   
     8     4     7 1   
     9     5    10 1   
    10     5    11 1   
    11     6     7 1   
    12     6    12 1   
    13     6    13 1   
    14     7    14 1   
    15     7    15 1   
@<TRIPOS>SUBSTRUCTURE
     1 XK7         1 TEMP              0 ****  ****    0 ROOT
