@<TRIPOS>MOLECULE
XK7
   15    15     1     0     0
SMALL
bcc


@<TRIPOS>ATOM
      1 N01        -13.3120     2.9220    14.1960 nt         1 XK7      -0.659000
      2 C02        -14.0070     3.0390    13.0590 c          1 XK7       0.707100
      3 O03        -13.7130     3.8180    12.1590 o          1 XK7      -0.625100
      4 C04        -15.1980     2.1220    12.9680 cx         1 XK7       0.009200
      5 N05        -15.4140     1.2780    14.1070 n8         1 XK7      -0.902800
      6 C06        -16.3790     2.6680    12.2040 cx         1 XK7      -0.117900
      7 C07        -15.5260     1.6200    11.5830 cx         1 XK7      -0.117900
      8 H011       -12.5000     3.4920    14.3660 hn         1 XK7       0.324500
      9 H012       -13.6210     2.2650    14.8940 hn         1 XK7       0.324500
     10 H052       -16.3180     1.4350    14.5290 hn         1 XK7       0.362300
     11 H051       -15.3470     0.2980    13.8700 hn         1 XK7       0.362300
     12 H061       -17.3560     2.3810    12.5710 hc         1 XK7       0.083200
     13 H062       -16.3180     3.6780    11.8210 hc         1 XK7       0.083200
     14 H071       -15.9160     0.6120    11.5240 hc         1 XK7       0.083200
     15 H072       -14.8710     1.9030    10.7700 hc         1 XK7       0.083200
@<TRIPOS>BOND
     1     1     2 1   
     2     1     8 1   
     3     1     9 1   
     4     2     3 2   
     5     2     4 1   
     6     4     5 1   
     7     4     6 1   
     8     4     7 1   
     9     5    10 1   
    10     5    11 1   
    11     6     7 1   
    12     6    12 1   
    13     6    13 1   
    14     7    14 1   
    15     7    15 1   
@<TRIPOS>SUBSTRUCTURE
     1 XK7         1 TEMP              0 ****  ****    0 ROOT
