@<TRIPOS>MOLECULE
XK8
   56    57     1     0     0
SMALL
abcg2


@<TRIPOS>ATOM
      1 C1          -0.9370    -9.2120    13.2260 ca         1 XK8       0.387900
      2 C2          -0.1580   -11.2460    12.5540 ca         1 XK8       0.385900
      3 C3          -0.4900   -11.7750    13.8220 ca         1 XK8      -0.111900
      4 C4          -1.2260   -14.0370    13.7130 c3         1 XK8       0.149600
      5 C5          -0.8290   -15.4010    14.2400 c3         1 XK8      -0.075400
      6 C6          -0.8740   -15.4950    15.7520 c3         1 XK8       0.165600
      7 C7          -2.5490   -15.3010    17.4730 ca         1 XK8       0.116100
      8 C10         -3.3370   -15.1170    20.1340 ca         1 XK8      -0.143000
      9 C11         -4.2830   -15.0720    19.1090 ca         1 XK8      -0.083000
     10 C12         -3.9190   -15.1580    17.7700 ca         1 XK8      -0.071300
     11 C13         -4.9030   -15.0780    16.6290 c3         1 XK8      -0.015100
     12 C14         -6.3520   -14.8270    17.0160 c3         1 XK8      -0.206400
     13 C15         -7.3490   -14.7480    15.8410 c          1 XK8       0.710000
     14 C16         -1.0280   -10.9120    14.7560 ca         1 XK8       0.186300
     15 C17         -1.3930   -11.3530    16.1440 c3         1 XK8      -0.134700
     16 C18         -2.9130   -11.4650    16.3400 c3         1 XK8      -0.067400
     17 C19         -3.3260   -11.7180    17.7910 c3         1 XK8      -0.085400
     18 C20         -3.1510   -10.5070    18.6860 c3         1 XK8       0.162600
     19 C8          -1.5950   -15.3550    18.4860 ca         1 XK8      -0.206000
     20 C9          -1.9950   -15.2570    19.8190 ca         1 XK8      -0.104000
     21 N1          -1.1360    -7.8890    12.9320 nv         1 XK8      -1.049900
     22 N2          -0.3900    -9.9650    12.2600 nb         1 XK8      -0.321000
     23 N3           0.3840   -12.0400    11.5970 nv         1 XK8      -1.063900
     24 N4          -1.2570    -9.6170    14.4570 nb         1 XK8      -0.274000
     25 O1          -0.2030   -13.0930    14.1030 os         1 XK8      -0.373100
     26 O2          -2.2420   -15.3680    16.1480 os         1 XK8      -0.349100
     27 O3          -8.5520   -14.5480    16.1630 o          1 XK8      -0.743000
     28 O4          -6.9170   -14.8850    14.6690 o          1 XK8      -0.743000
     29 O5          -3.6240   -10.8450    19.9980 oh         1 XK8      -0.665000
     30 H1          -2.1830   -13.7180    14.1310 h1         1 XK8       0.052200
     31 H2          -1.3110   -14.0520    12.6240 h1         1 XK8       0.052200
     32 H3          -1.4970   -16.1510    13.8100 hc         1 XK8       0.056700
     33 H4           0.1840   -15.6370    13.9030 hc         1 XK8       0.056700
     34 H5          -0.4790   -16.4560    16.0940 h1         1 XK8       0.033200
     35 H6          -0.2820   -14.6970    16.2060 h1         1 XK8       0.033200
     36 H7          -3.6540   -15.0400    21.1660 ha         1 XK8       0.103000
     37 H8          -5.3270   -14.9540    19.3650 ha         1 XK8       0.129000
     38 H9          -4.8380   -15.9990    16.0430 hc         1 XK8       0.059200
     39 H10         -4.5730   -14.2940    15.9440 hc         1 XK8       0.059200
     40 H11         -6.4420   -13.8920    17.5770 hc         1 XK8       0.021700
     41 H12         -6.7160   -15.6100    17.6880 hc         1 XK8       0.021700
     42 H13         -0.9260   -12.3120    16.3690 hc         1 XK8       0.059200
     43 H14         -0.9860   -10.6130    16.8370 hc         1 XK8       0.059200
     44 H15         -3.3900   -10.5500    15.9760 hc         1 XK8       0.057200
     45 H16         -3.2850   -12.2810    15.7160 hc         1 XK8       0.057200
     46 H17         -4.3780   -12.0150    17.8160 hc         1 XK8       0.069200
     47 H18         -2.7560   -12.5550    18.2010 hc         1 XK8       0.069200
     48 H19         -2.1000   -10.2060    18.7370 h1         1 XK8       0.013200
     49 H20         -3.7240    -9.6620    18.2860 h1         1 XK8       0.013200
     50 H21         -0.5470   -15.4650    18.2510 ha         1 XK8       0.100000
     51 H22         -1.2470   -15.2930    20.6010 ha         1 XK8       0.094000
     52 H23         -1.1640    -7.6430    11.9550 hn         1 XK8       0.478000
     53 H24         -1.7770    -7.3910    13.5280 hn         1 XK8       0.478000
     54 H25          0.7960   -11.5870    10.7970 hn         1 XK8       0.485500
     55 H26          0.7880   -12.9170    11.8830 hn         1 XK8       0.485500
     56 H28         -3.4720   -10.0890    20.5780 ho         1 XK8       0.426000
@<TRIPOS>BOND
     1     1    21 1   
     2     1    22 ar  
     3     1    24 ar  
     4     2     3 ar  
     5     2    22 ar  
     6     2    23 1   
     7     3    14 ar  
     8     3    25 1   
     9     4     5 1   
    10     4    25 1   
    11     4    30 1   
    12     4    31 1   
    13     5     6 1   
    14     5    32 1   
    15     5    33 1   
    16     6    26 1   
    17     6    34 1   
    18     6    35 1   
    19     7    10 ar  
    20     7    19 ar  
    21     7    26 1   
    22     8     9 ar  
    23     8    20 ar  
    24     8    36 1   
    25     9    10 ar  
    26     9    37 1   
    27    10    11 1   
    28    11    12 1   
    29    11    38 1   
    30    11    39 1   
    31    12    13 1   
    32    12    40 1   
    33    12    41 1   
    34    13    27 1   
    35    13    28 1   
    36    14    15 1   
    37    14    24 ar  
    38    15    16 1   
    39    15    42 1   
    40    15    43 1   
    41    16    17 1   
    42    16    44 1   
    43    16    45 1   
    44    17    18 1   
    45    17    46 1   
    46    17    47 1   
    47    18    29 1   
    48    18    48 1   
    49    18    49 1   
    50    19    20 ar  
    51    19    50 1   
    52    20    51 1   
    53    21    52 1   
    54    21    53 1   
    55    23    54 1   
    56    23    55 1   
    57    29    56 1   
@<TRIPOS>SUBSTRUCTURE
     1 XK8         1 TEMP              0 ****  ****    0 ROOT
