@<TRIPOS>MOLECULE
XK8
   56    57     1     0     0
SMALL
No Charge or Current Charge


@<TRIPOS>ATOM
      1 C1          -1.2380    -9.2600    12.9880 ca         1 XK8       0.387900
      2 C2          -0.5770   -11.3480    12.4100 ca         1 XK8       0.385900
      3 C3          -0.6390   -11.7490    13.7680 ca         1 XK8      -0.111900
      4 C4          -1.1270   -14.1500    13.7520 c3         1 XK8       0.149600
      5 C5          -0.6110   -15.4150    14.4680 c3         1 XK8      -0.075400
      6 C6          -0.8090   -15.3950    15.9970 c3         1 XK8       0.165600
      7 C7          -2.7390   -15.3010    17.5400 ca         1 XK8       0.116100
      8 C10         -3.8400   -15.1690    20.1260 ca         1 XK8      -0.143000
      9 C11         -4.6750   -15.0640    19.0020 ca         1 XK8      -0.083000
     10 C12         -4.1360   -15.1280    17.6950 ca         1 XK8      -0.071300
     11 C13         -5.0150   -15.0040    16.4380 c3         1 XK8      -0.015100
     12 C14         -6.5270   -14.7570    16.6720 c3         1 XK8      -0.206400
     13 C15         -7.2530   -14.6470    15.3210 c          1 XK8       0.710000
     14 C16         -1.0130   -10.7560    14.7030 ca         1 XK8       0.186300
     15 C17         -1.1090   -11.0280    16.2010 c3         1 XK8      -0.134700
     16 C18         -2.5040   -11.5530    16.6180 c3         1 XK8      -0.067400
     17 C19         -2.6640   -11.8030    18.1370 c3         1 XK8      -0.085400
     18 C20         -2.6110   -10.5250    19.0000 c3         1 XK8       0.162600
     19 C8          -1.9070   -15.4080    18.6780 ca         1 XK8      -0.206000
     20 C9          -2.4580   -15.3410    19.9660 ca         1 XK8      -0.104000
     21 N1          -1.5510    -8.0050    12.5920 nv         1 XK8      -1.049900
     22 N2          -0.8780   -10.1060    12.0170 nb         1 XK8      -0.321000
     23 N3          -0.1550   -12.1640    11.4050 nv         1 XK8      -1.063900
     24 N4          -1.3220    -9.5040    14.3020 nb         1 XK8      -0.274000
     25 O1          -0.3310   -13.0320    14.1910 os         1 XK8      -0.373100
     26 O2          -2.2220   -15.3550    16.2590 os         1 XK8      -0.349100
     27 O3          -7.6750   -15.6720    14.8080 o          1 XK8      -0.743000
     28 O4          -7.3340   -13.5470    14.7980 o          1 XK8      -0.743000
     29 O5          -2.8600   -10.8530    20.3690 oh         1 XK8      -0.665000
     30 H1          -2.1860   -13.9920    13.9930 h1         1 XK8       0.052200
     31 H2          -1.0450   -14.2970    12.6680 h1         1 XK8       0.052200
     32 H3          -1.1240   -16.2920    14.0560 hc         1 XK8       0.056700
     33 H4           0.4550   -15.5430    14.2470 hc         1 XK8       0.056700
     34 H5          -0.3620   -16.3000    16.4280 h1         1 XK8       0.033200
     35 H6          -0.3070   -14.5180    16.4270 h1         1 XK8       0.033200
     36 H7          -4.2670   -15.1170    21.1250 ha         1 XK8       0.103000
     37 H8          -5.7410   -14.9300    19.1640 ha         1 XK8       0.129000
     38 H9          -4.9040   -15.9160    15.8380 hc         1 XK8       0.059200
     39 H10         -4.6300   -14.1870    15.8150 hc         1 XK8       0.059200
     40 H11         -6.5990   -13.8100    17.2200 hc         1 XK8       0.021700
     41 H12         -6.8950   -15.6290    17.2280 hc         1 XK8       0.021700
     42 H13         -0.3460   -11.7560    16.5020 hc         1 XK8       0.059200
     43 H14         -0.8820   -10.1090    16.7530 hc         1 XK8       0.059200
     44 H15         -3.2740   -10.8450    16.2880 hc         1 XK8       0.057200
     45 H16         -2.6970   -12.4930    16.0860 hc         1 XK8       0.057200
     46 H17         -3.6280   -12.2980    18.3070 hc         1 XK8       0.069200
     47 H18         -1.8880   -12.5000    18.4750 hc         1 XK8       0.069200
     48 H19         -1.6250   -10.0520    18.9020 h1         1 XK8       0.013200
     49 H20         -3.3660    -9.8130    18.6390 h1         1 XK8       0.013200
     50 H21         -0.8330   -15.5410    18.5830 ha         1 XK8       0.100000
     51 H22         -1.8150   -15.4210    20.8400 ha         1 XK8       0.094000
     52 H23         -1.7060    -7.8360    11.6010 hn         1 XK8       0.478000
     53 H24         -2.0290    -7.3910    13.2460 hn         1 XK8       0.478000
     54 H25          0.0880   -11.7330    10.5170 hn         1 XK8       0.485500
     55 H26          0.3750   -12.9910    11.6640 hn         1 XK8       0.485500
     56 H28         -2.8210   -10.0120    20.8750 ho         1 XK8       0.426000
@<TRIPOS>BOND
     1     1    21 1   
     2     1    22 ar  
     3     1    24 ar  
     4     2     3 ar  
     5     2    22 ar  
     6     2    23 1   
     7     3    14 ar  
     8     3    25 1   
     9     4     5 1   
    10     4    25 1   
    11     4    30 1   
    12     4    31 1   
    13     5     6 1   
    14     5    32 1   
    15     5    33 1   
    16     6    26 1   
    17     6    34 1   
    18     6    35 1   
    19     7    10 ar  
    20     7    19 ar  
    21     7    26 1   
    22     8     9 ar  
    23     8    20 ar  
    24     8    36 1   
    25     9    10 ar  
    26     9    37 1   
    27    10    11 1   
    28    11    12 1   
    29    11    38 1   
    30    11    39 1   
    31    12    13 1   
    32    12    40 1   
    33    12    41 1   
    34    13    27 1   
    35    13    28 1   
    36    14    15 1   
    37    14    24 ar  
    38    15    16 1   
    39    15    42 1   
    40    15    43 1   
    41    16    17 1   
    42    16    44 1   
    43    16    45 1   
    44    17    18 1   
    45    17    46 1   
    46    17    47 1   
    47    18    29 1   
    48    18    48 1   
    49    18    49 1   
    50    19    20 ar  
    51    19    50 1   
    52    20    51 1   
    53    21    52 1   
    54    21    53 1   
    55    23    54 1   
    56    23    55 1   
    57    29    56 1   
@<TRIPOS>SUBSTRUCTURE
     1 XK8         1 TEMP              0 ****  ****    0 ROOT
