@<TRIPOS>MOLECULE
XK9
   46    48     1     0     0
SMALL
No Charge or Current Charge


@<TRIPOS>ATOM
      1 O3          -6.3580     3.5740    -0.3550 o          1 XK9      -0.415000
      2 N7          -5.5110     2.6750    -0.2740 no         1 XK9       0.709200
      3 O2          -4.2980     2.8920    -0.1420 o          1 XK9      -0.415000
      4 C3          -5.9840     1.2530    -0.3390 ca         1 XK9      -0.214200
      5 C2          -7.3670     0.9640    -0.4910 ca         1 XK9       0.002000
      6 C4          -5.1040     0.1510    -0.2560 ca         1 XK9       0.019800
      7 N1          -3.7210     0.1190    -0.1080 na         1 XK9      -0.190700
      8 C8          -3.2510    -1.2200    -0.0710 cc         1 XK9      -0.149300
      9 C7          -4.4060    -1.9830    -0.2030 cd         1 XK9      -0.143200
     10 C5          -5.5650    -1.1360    -0.3190 ca         1 XK9      -0.140800
     11 C6          -6.9200    -1.4490    -0.4670 ca         1 XK9       0.010000
     12 C1          -7.8260    -0.3740    -0.5530 ca         1 XK9      -0.168000
     13 C9          -1.8840    -1.7960     0.0690 c          1 XK9       0.640300
     14 O1          -1.6730    -3.0040     0.0800 o          1 XK9      -0.559100
     15 N2          -0.8960    -0.8260     0.1900 ns         1 XK9      -0.143000
     16 C10          0.5180    -0.9100     0.3240 ca         1 XK9      -0.022000
     17 C15          1.2250     0.2850     0.5440 ca         1 XK9      -0.149500
     18 C14          2.6230     0.2820     0.6830 ca         1 XK9      -0.062000
     19 C13          3.3500    -0.9270     0.6210 ca         1 XK9      -0.134900
     20 C12          2.6430    -2.1220     0.3670 ca         1 XK9      -0.062000
     21 C11          1.2430    -2.1160     0.2270 ca         1 XK9      -0.149500
     22 C16          4.8490    -0.9290     0.7240 ce         1 XK9       0.371900
     23 C17          5.5220    -2.1150     1.4100 c3         1 XK9      -0.164400
     24 N3           5.5050     0.1330     0.3410 n2         1 XK9      -0.357400
     25 N4           6.8860     0.1670     0.2510 nu         1 XK9      -0.615500
     26 C18          7.6220     1.2760    -0.1000 c2         1 XK9       0.778100
     27 N6           7.1990     2.4650    -0.0220 n2         1 XK9      -0.804100
     28 N5           8.9320     1.0060    -0.4290 nu         1 XK9      -0.672900
     29 OBC          9.6700     2.0330    -1.1980 oh         1 XK9      -0.384300
     30 H2          -8.0980     1.7690    -0.5610 ha         1 XK9       0.150000
     31 H1          -8.8890    -0.5750    -0.6690 ha         1 XK9       0.130000
     32 HA          -3.1490     0.9560    -0.0400 hn         1 XK9       0.383000
     33 H7          -4.4250    -3.0720    -0.2160 ha         1 XK9       0.229000
     34 H6          -7.2600    -2.4820    -0.5140 ha         1 XK9       0.129000
     35 HB          -1.2440     0.1220     0.1800 hn         1 XK9       0.154000
     36 H15          0.6890     1.2300     0.6080 ha         1 XK9       0.128500
     37 H11          0.7470    -3.0610     0.0310 ha         1 XK9       0.128500
     38 H14          3.1390     1.2260     0.8520 ha         1 XK9       0.129000
     39 H12          3.1740    -3.0660     0.2630 ha         1 XK9       0.129000
     40 H171         6.0890    -2.7170     0.6910 hc         1 XK9       0.049033
     41 H172         6.2130    -1.7810     2.1930 hc         1 XK9       0.049033
     42 H173         4.7980    -2.7750     1.8990 hc         1 XK9       0.049033
     43 H4           7.4660    -0.6330     0.5010 hn         1 XK9       0.488000
     44 H5           9.1160     0.0700    -0.8000 hn         1 XK9       0.451000
     45 HBC          9.2230     2.1200    -2.0760 ho         1 XK9       0.414000
     46 H6A          8.0090     3.0440    -0.2680 hn         1 XK9       0.396400
@<TRIPOS>BOND
     1     1     2 1   
     2     2     3 1   
     3     2     4 1   
     4     4     5 ar  
     5     4     6 ar  
     6     5    12 ar  
     7     5    30 1   
     8     6     7 1   
     9     6    10 ar  
    10     7     8 1   
    11     7    32 1   
    12     8     9 2   
    13     8    13 1   
    14     9    10 1   
    15     9    33 1   
    16    10    11 ar  
    17    11    12 ar  
    18    11    34 1   
    19    12    31 1   
    20    13    14 2   
    21    13    15 1   
    22    15    16 1   
    23    15    35 1   
    24    16    17 ar  
    25    16    21 ar  
    26    17    18 ar  
    27    17    36 1   
    28    18    19 ar  
    29    18    38 1   
    30    19    20 ar  
    31    19    22 1   
    32    20    21 ar  
    33    20    39 1   
    34    21    37 1   
    35    22    23 1   
    36    22    24 2   
    37    23    40 1   
    38    23    41 1   
    39    23    42 1   
    40    24    25 1   
    41    25    26 1   
    42    25    43 1   
    43    26    27 2   
    44    26    28 1   
    45    27    46 1   
    46    28    29 1   
    47    28    44 1   
    48    29    45 1   
@<TRIPOS>SUBSTRUCTURE
     1 XK9         1 TEMP              0 ****  ****    0 ROOT
