@<TRIPOS>MOLECULE
XK9
   46    48     1     0     0
SMALL
abcg2


@<TRIPOS>ATOM
      1 O3          -6.4150     3.2720     0.6790 o          1 XK9      -0.415000
      2 N7          -5.5710     2.4120     0.5900 no         1 XK9       0.709200
      3 O2          -4.4180     2.5650     0.9400 o          1 XK9      -0.415000
      4 C3          -5.9330     1.1340     0.0420 ca         1 XK9      -0.214200
      5 C2          -7.2390     0.9010    -0.3530 ca         1 XK9       0.002000
      6 C4          -4.9790     0.1140    -0.1030 ca         1 XK9       0.019800
      7 N1          -3.6580     0.0430     0.1770 na         1 XK9      -0.190700
      8 C8          -3.1930    -1.2150    -0.1390 cc         1 XK9      -0.149300
      9 C7          -4.2150    -1.9650    -0.6410 cd         1 XK9      -0.143200
     10 C5          -5.3720    -1.1380    -0.6380 ca         1 XK9      -0.140800
     11 C6          -6.6920    -1.3510    -1.0340 ca         1 XK9       0.010000
     12 C1          -7.6140    -0.3310    -0.8880 ca         1 XK9      -0.168000
     13 C9          -1.7960    -1.6610     0.0310 c          1 XK9       0.640300
     14 O1          -1.5370    -2.8490     0.0850 o          1 XK9      -0.559100
     15 N2          -0.8740    -0.6670     0.0990 ns         1 XK9      -0.143000
     16 C10          0.5090    -0.7910     0.2660 ca         1 XK9      -0.022000
     17 C15          1.2950     0.3130    -0.0790 ca         1 XK9      -0.149500
     18 C14          2.6650     0.2840     0.0690 ca         1 XK9      -0.062000
     19 C13          3.3140    -0.8490     0.5750 ca         1 XK9      -0.134900
     20 C12          2.5180    -1.9370     0.9240 ca         1 XK9      -0.062000
     21 C11          1.1380    -1.9230     0.7760 ca         1 XK9      -0.149500
     22 C16          4.7840    -0.8920     0.7140 ce         1 XK9       0.371900
     23 C17          5.4060    -2.0390     1.4570 c3         1 XK9      -0.164400
     24 N3           5.4260     0.0620     0.1560 n2         1 XK9      -0.357400
     25 N4           6.7600     0.0870     0.1760 nu         1 XK9      -0.615500
     26 C18          7.4340     1.1920    -0.2910 c2         1 XK9       0.778100
     27 N6           6.8440     2.2560    -0.6510 n2         1 XK9      -0.804100
     28 N5           8.8090     0.9610    -0.2360 nu         1 XK9      -0.672900
     29 OBC          9.5950     1.9390    -0.7960 oh         1 XK9      -0.384300
     30 H2          -7.9800     1.6800    -0.2480 ha         1 XK9       0.150000
     31 H1          -8.6410    -0.4810    -1.1880 ha         1 XK9       0.130000
     32 HA          -3.1480     0.7630     0.6620 hn         1 XK9       0.383000
     33 H7          -4.1470    -2.9820    -0.9930 ha         1 XK9       0.229000
     34 H6          -6.9910    -2.3050    -1.4460 ha         1 XK9       0.129000
     35 HB          -1.1790     0.2620    -0.1500 hn         1 XK9       0.154000
     36 H15          0.8240     1.2060    -0.4720 ha         1 XK9       0.128500
     37 H11          0.5760    -2.7950     1.0670 ha         1 XK9       0.128500
     38 H14          3.2440     1.1530    -0.2130 ha         1 XK9       0.129000
     39 H12          2.9640    -2.8410     1.3160 ha         1 XK9       0.129000
     40 H171         5.5040    -2.9180     0.8170 hc         1 XK9       0.049033
     41 H172         6.3960    -1.8080     1.8500 hc         1 XK9       0.049033
     42 H173         4.8000    -2.3260     2.3140 hc         1 XK9       0.049033
     43 H4           7.2880    -0.6450     0.6320 hn         1 XK9       0.488000
     44 H5           9.1020     0.0370    -0.5340 hn         1 XK9       0.451000
     45 HBC          9.5020     1.8810    -1.7590 ho         1 XK9       0.414000
     46 H6A          7.5160     2.9340    -0.9890 hn         1 XK9       0.396400
@<TRIPOS>BOND
     1     1     2 1   
     2     2     3 1   
     3     2     4 1   
     4     4     5 ar  
     5     4     6 ar  
     6     5    12 ar  
     7     5    30 1   
     8     6     7 1   
     9     6    10 ar  
    10     7     8 1   
    11     7    32 1   
    12     8     9 2   
    13     8    13 1   
    14     9    10 1   
    15     9    33 1   
    16    10    11 ar  
    17    11    12 ar  
    18    11    34 1   
    19    12    31 1   
    20    13    14 2   
    21    13    15 1   
    22    15    16 1   
    23    15    35 1   
    24    16    17 ar  
    25    16    21 ar  
    26    17    18 ar  
    27    17    36 1   
    28    18    19 ar  
    29    18    38 1   
    30    19    20 ar  
    31    19    22 1   
    32    20    21 ar  
    33    20    39 1   
    34    21    37 1   
    35    22    23 1   
    36    22    24 2   
    37    23    40 1   
    38    23    41 1   
    39    23    42 1   
    40    24    25 1   
    41    25    26 1   
    42    25    43 1   
    43    26    27 2   
    44    26    28 1   
    45    27    46 1   
    46    28    29 1   
    47    28    44 1   
    48    29    45 1   
@<TRIPOS>SUBSTRUCTURE
     1 XK9         1 TEMP              0 ****  ****    0 ROOT
