@<TRIPOS>MOLECULE
XKA
   50    53     1     0     0
SMALL
No Charge or Current Charge


@<TRIPOS>ATOM
      1 N1          -2.5570    -0.2930     0.3150 nu         1 XKA      -0.955100
      2 C4          -5.6860     1.5320     0.0340 c6         1 XKA       0.145300
      3 C5          -4.8660     1.2020     1.3170 c6         1 XKA       0.165300
      4 C6          -5.5950     1.6590     2.6230 c3         1 XKA       0.173600
      5 C10          7.0020     3.5990     0.8020 ca         1 XKA       0.295900
      6 C13         -1.4980    -0.9710    -0.2020 cc         1 XKA       0.738300
      7 C15         -0.4790    -2.5240    -1.3960 cd         1 XKA       0.407900
      8 C20          3.1470    -1.4920    -0.8420 cc         1 XKA      -0.352600
      9 C1          -3.9180    -0.8260     0.3040 c6         1 XKA       0.431500
     10 C2          -4.6740    -0.5570    -1.0580 c6         1 XKA       0.103300
     11 O2          -5.9390    -1.2680    -1.1430 oh         1 XKA      -0.683000
     12 C3          -4.9440     0.9690    -1.2160 c6         1 XKA       0.140300
     13 O3          -5.7210     1.2040    -2.4020 oh         1 XKA      -0.645000
     14 O5          -4.6310    -0.2330     1.4070 os         1 XKA      -0.411000
     15 O6          -4.8750     1.3180     3.8260 oh         1 XKA      -0.706000
     16 S14          0.1550    -0.5410     0.1330 ss         1 XKA      -0.082400
     17 C16          0.6240    -1.8710    -0.8980 cc         1 XKA      -0.365600
     18 N17         -1.7010    -1.9980    -0.9930 nd         1 XKA      -0.724000
     19 C18          1.9910    -2.3270    -1.2300 c          1 XKA       0.666300
     20 O19          2.1550    -3.4150    -1.7620 o          1 XKA      -0.523100
     21 N02          5.2490    -1.0600     0.0530 nd         1 XKA      -0.653000
     22 S02          3.1450     0.2500    -0.7700 ss         1 XKA       0.107600
     23 N03          4.9330     2.6230    -0.0360 nb         1 XKA      -0.644000
     24 N04          7.5940     2.3940     1.0270 nb         1 XKA      -0.632000
     25 C06          4.3170    -2.0110    -0.3350 cd         1 XKA       0.369300
     26 C07          4.7660     0.1690    -0.1280 cc         1 XKA       0.364400
     27 C08          5.5170     1.4000     0.1850 ca         1 XKA       0.250000
     28 C09          5.6890     3.7130     0.2780 ca         1 XKA       0.291900
     29 C11          6.8380     1.3020     0.7130 ca         1 XKA       0.339900
     30 C12          4.6710    -3.4610    -0.1500 c3         1 XKA      -0.126400
     31 H1          -2.2940     0.2750     1.1110 hn         1 XKA       0.499000
     32 H2          -6.6570     1.0190     0.1170 h1         1 XKA       0.074700
     33 H3          -3.9020     1.7290     1.2730 h1         1 XKA       0.059700
     34 H4          -5.7430     2.7460     2.5730 h1         1 XKA       0.035700
     35 H5          -6.5910     1.1950     2.6360 h1         1 XKA       0.035700
     36 H7          -0.4660    -3.3840    -2.0550 h4         1 XKA       0.057100
     37 H8          -3.8900    -1.9170     0.4620 h2         1 XKA       0.109700
     38 H9          -4.0240    -0.8750    -1.8850 h1         1 XKA       0.037700
     39 H10         -5.7350    -2.2290    -1.2290 ho         1 XKA       0.510000
     40 H11         -3.9750     1.4820    -1.3040 h1         1 XKA       0.034700
     41 H12         -6.2720     0.3920    -2.4930 ho         1 XKA       0.449000
     42 H14         -5.4400     1.5920     4.5860 ho         1 XKA       0.504000
     43 H15          5.2380     4.6900     0.1070 h4         1 XKA       0.033100
     44 H16          7.3040     0.3330     0.8900 h4         1 XKA       0.056100
     45 H17          4.8070    -3.9560    -1.1180 hc         1 XKA       0.061033
     46 H18          5.6030    -3.5790     0.4160 hc         1 XKA       0.061033
     47 H19          3.8840    -3.9910     0.3980 hc         1 XKA       0.061033
     48 O4          -5.8970     2.9500    -0.1270 oh         1 XKA      -0.721000
     49 H6           7.5840     4.4870     1.0450 h4         1 XKA       0.034100
     50 H13         -6.0910     3.0710    -1.0880 ho         1 XKA       0.524000
@<TRIPOS>BOND
     1     1     6 1   
     2     1     9 1   
     3     1    31 1   
     4     2     3 1   
     5     2    12 1   
     6     2    32 1   
     7     2    48 1   
     8     3     4 1   
     9     3    14 1   
    10     3    33 1   
    11     4    15 1   
    12     4    34 1   
    13     4    35 1   
    14     5    24 ar  
    15     5    28 ar  
    16     5    49 1   
    17     6    16 1   
    18     6    18 2   
    19     7    17 2   
    20     7    18 1   
    21     7    36 1   
    22     8    19 1   
    23     8    22 1   
    24     8    25 2   
    25     9    10 1   
    26     9    14 1   
    27     9    37 1   
    28    10    11 1   
    29    10    12 1   
    30    10    38 1   
    31    11    39 1   
    32    12    13 1   
    33    12    40 1   
    34    13    41 1   
    35    15    42 1   
    36    16    17 1   
    37    17    19 1   
    38    19    20 2   
    39    21    25 1   
    40    21    26 2   
    41    22    26 1   
    42    23    27 ar  
    43    23    28 ar  
    44    24    29 ar  
    45    25    30 1   
    46    26    27 1   
    47    27    29 ar  
    48    28    43 1   
    49    29    44 1   
    50    30    45 1   
    51    30    46 1   
    52    30    47 1   
    53    48    50 1   
@<TRIPOS>SUBSTRUCTURE
     1 XKA         1 TEMP              0 ****  ****    0 ROOT
