@<TRIPOS>MOLECULE
XKA
   50    53     1     0     0
SMALL
abcg2


@<TRIPOS>ATOM
      1 N1          -2.5060     0.1740    -0.5340 nu         1 XKA      -0.955100
      2 C4          -5.7570     1.2800     0.5510 c6         1 XKA       0.145300
      3 C5          -4.9640     0.0900     1.0980 c6         1 XKA       0.165300
      4 C6          -5.7800    -0.7150     2.0880 c3         1 XKA       0.173600
      5 C10          6.9780     3.3550    -1.3730 ca         1 XKA       0.295900
      6 C13         -1.5230    -0.7170    -0.3440 cc         1 XKA       0.738300
      7 C15         -0.5050    -2.6470    -0.2480 cd         1 XKA       0.407900
      8 C20          3.0780    -1.5110     0.3480 cc         1 XKA      -0.352600
      9 C1          -3.8240    -0.2260    -0.9710 c6         1 XKA       0.431500
     10 C2          -4.5380     0.9660    -1.6230 c6         1 XKA       0.103300
     11 O2          -5.6970     0.5310    -2.2790 oh         1 XKA      -0.683000
     12 C3          -4.9470     1.9660    -0.5440 c6         1 XKA       0.140300
     13 O3          -5.7220     3.0210    -1.0530 oh         1 XKA      -0.645000
     14 O5          -4.5950    -0.7860     0.0500 os         1 XKA      -0.411000
     15 O6          -4.9710    -1.7290     2.6310 oh         1 XKA      -0.706000
     16 S14          0.0800    -0.2050     0.0920 ss         1 XKA      -0.082400
     17 C16          0.5810    -1.8770     0.0700 cc         1 XKA      -0.365600
     18 N17         -1.6690    -2.0100    -0.4840 nd         1 XKA      -0.724000
     19 C18          1.9060    -2.4000     0.3720 c          1 XKA       0.666300
     20 O19          2.0510    -3.5830     0.6330 o          1 XKA      -0.523100
     21 N02          5.2190    -0.7820     0.7460 nd         1 XKA      -0.653000
     22 S02          3.1660    -0.0610    -0.5840 ss         1 XKA       0.107600
     23 N03          4.9560     2.1290    -1.3400 nb         1 XKA      -0.644000
     24 N04          7.5850     2.5120    -0.5500 nb         1 XKA      -0.632000
     25 C06          4.2820    -1.7330     0.9850 cd         1 XKA       0.369300
     26 C07          4.7820     0.1420    -0.0560 cc         1 XKA       0.364400
     27 C08          5.5640     1.2820    -0.5170 ca         1 XKA       0.250000
     28 C09          5.6580     3.1620    -1.7690 ca         1 XKA       0.291900
     29 C11          6.8850     1.4750    -0.1180 ca         1 XKA       0.339900
     30 C12          4.6260    -2.8730     1.8820 c3         1 XKA      -0.126400
     31 H1          -2.2930     1.1510    -0.4140 hn         1 XKA       0.499000
     32 H2          -6.6990     0.9090     0.1210 h1         1 XKA       0.074700
     33 H3          -4.0660     0.4760     1.6070 h1         1 XKA       0.059700
     34 H4          -6.1530    -0.0370     2.8640 h1         1 XKA       0.035700
     35 H5          -6.6580    -1.1240     1.5680 h1         1 XKA       0.035700
     36 H7          -0.4660    -3.7240    -0.3300 h4         1 XKA       0.057100
     37 H8          -3.7020    -1.0230    -1.7090 h2         1 XKA       0.109700
     38 H9          -3.8390     1.4490    -2.3210 h1         1 XKA       0.037700
     39 H10         -5.4390     0.0350    -3.0620 ho         1 XKA       0.510000
     40 H11         -4.0330     2.3570    -0.0710 h1         1 XKA       0.034700
     41 H12         -5.1550     3.6120    -1.5580 ho         1 XKA       0.449000
     42 H14         -5.4860    -2.1920     3.2980 ho         1 XKA       0.504000
     43 H15          5.1710     3.8570    -2.4420 h4         1 XKA       0.033100
     44 H16          7.3720     0.7810     0.5540 h4         1 XKA       0.056100
     45 H17          4.7660    -3.7910     1.3120 hc         1 XKA       0.061033
     46 H18          5.5510    -2.6550     2.4100 hc         1 XKA       0.061033
     47 H19          3.8420    -3.0630     2.6130 hc         1 XKA       0.061033
     48 O4          -6.0010     2.1570     1.6230 oh         1 XKA      -0.721000
     49 H6           7.5430     4.2050    -1.7340 h4         1 XKA       0.034100
     50 H13         -6.5020     2.9080     1.2870 ho         1 XKA       0.524000
@<TRIPOS>BOND
     1     1     6 1   
     2     1     9 1   
     3     1    31 1   
     4     2     3 1   
     5     2    12 1   
     6     2    32 1   
     7     2    48 1   
     8     3     4 1   
     9     3    14 1   
    10     3    33 1   
    11     4    15 1   
    12     4    34 1   
    13     4    35 1   
    14     5    24 ar  
    15     5    28 ar  
    16     5    49 1   
    17     6    16 1   
    18     6    18 2   
    19     7    17 2   
    20     7    18 1   
    21     7    36 1   
    22     8    19 1   
    23     8    22 1   
    24     8    25 2   
    25     9    10 1   
    26     9    14 1   
    27     9    37 1   
    28    10    11 1   
    29    10    12 1   
    30    10    38 1   
    31    11    39 1   
    32    12    13 1   
    33    12    40 1   
    34    13    41 1   
    35    15    42 1   
    36    16    17 1   
    37    17    19 1   
    38    19    20 2   
    39    21    25 1   
    40    21    26 2   
    41    22    26 1   
    42    23    27 ar  
    43    23    28 ar  
    44    24    29 ar  
    45    25    30 1   
    46    26    27 1   
    47    27    29 ar  
    48    28    43 1   
    49    29    44 1   
    50    30    45 1   
    51    30    46 1   
    52    30    47 1   
    53    48    50 1   
@<TRIPOS>SUBSTRUCTURE
     1 XKA         1 TEMP              0 ****  ****    0 ROOT
