@<TRIPOS>MOLECULE
XKB
   60    65     1     0     0
SMALL
No Charge or Current Charge


@<TRIPOS>ATOM
      1 C2           7.6370     7.1600     0.0060 cc         1 XKB       0.797400
      2 C4           7.0780     6.1650     1.9970 cd         1 XKB       0.373500
      3 C5           5.7550     6.1010     1.6750 cc         1 XKB       0.016400
      4 C6           5.3280     6.6070     0.4250 cc         1 XKB       0.033000
      5 N6           4.1520     6.7000    -0.1650 nd         1 XKB      -0.267600
      6 C11          5.5880     4.7810     7.8860 c          1 XKB       0.635100
      7 N12          4.9660     5.9630     8.1900 ns         1 XKB      -0.486900
      8 O5           6.7250     4.9710     7.1520 os         1 XKB      -0.475100
      9 C22          8.7720     4.1790     5.9970 c5         1 XKB       0.127300
     10 O4           8.4290     4.1190     4.5880 os         1 XKB      -0.453000
     11 C3           9.4090     5.5950     6.2170 c5         1 XKB       0.106300
     12 O3          10.8010     5.6460     5.8390 oh         1 XKB      -0.694000
     13 C7           8.5590     6.4500     5.2360 c5         1 XKB       0.138300
     14 O2           9.2600     7.6570     4.9130 oh         1 XKB      -0.676000
     15 C1           8.3980     5.4570     4.0320 c5         1 XKB       0.313300
     16 N9           7.1850     5.6100     3.2440 na         1 XKB      -0.270300
     17 C8           5.8940     5.2260     3.6090 cd         1 XKB       0.386700
     18 N7           5.0060     5.5280     2.6600 nc         1 XKB      -0.507100
     19 N1           6.2810     7.1180    -0.3820 na         1 XKB      -0.151400
     20 N3           8.0750     6.6910     1.1690 nd         1 XKB      -0.758000
     21 C9           4.4020     7.3180    -1.3930 cd         1 XKB      -0.028400
     22 C10          5.7470     7.6030    -1.5540 cc         1 XKB      -0.272100
     23 O11          5.1610     3.6990     8.2510 o          1 XKB      -0.540000
     24 C12          5.3940     7.3080     7.7850 c3         1 XKB       0.121000
     25 C13          4.8620     7.7080     6.3910 c3         1 XKB      -0.023200
     26 C14          3.3610     7.6330     6.2690 cc         1 XKB      -0.149400
     27 C15          2.6250     6.7420     5.4910 cd         1 XKB      -0.149100
     28 N15          1.2420     6.9910     5.6620 na         1 XKB      -0.229700
     29 C16          1.1520     8.0460     6.5500 ca         1 XKB      -0.042200
     30 C21          2.3950     8.4630     6.9350 ca         1 XKB      -0.097800
     31 C20          2.5740     9.5330     7.8260 ca         1 XKB      -0.067000
     32 C19          1.4210    10.1740     8.3290 ca         1 XKB      -0.137000
     33 C18          0.1330     9.7410     7.9350 ca         1 XKB      -0.089000
     34 C17         -0.0110     8.6650     7.0330 ca         1 XKB      -0.126000
     35 N2           8.5770     7.6340    -0.8120 nv         1 XKB      -1.059900
     36 H1           4.1070     5.8750     8.7170 hn         1 XKB       0.338500
     37 H2           6.9430     3.0430     6.3340 h1         1 XKB       0.066200
     38 H3           7.8850     3.3620     7.8030 h1         1 XKB       0.066200
     39 H4           9.5200     3.3960     6.1860 h1         1 XKB       0.085700
     40 H5           9.2810     5.9350     7.2550 h1         1 XKB       0.058700
     41 H6          11.3150     5.1470     6.5180 ho         1 XKB       0.508000
     42 H7           7.5800     6.6940     5.6630 h1         1 XKB       0.045700
     43 H8          10.2070     7.4150     5.0730 ho         1 XKB       0.512000
     44 H9           9.2440     5.5750     3.3420 h2         1 XKB       0.123700
     45 H10          5.6820     4.7510     4.5600 h5         1 XKB       0.066800
     46 H11          3.5930     7.5290    -2.0900 h4         1 XKB       0.228000
     47 H12          6.3010     8.0840    -2.3550 h4         1 XKB       0.225000
     48 H13          6.4910     7.3670     7.7920 h1         1 XKB       0.054200
     49 H14          5.0250     8.0220     8.5320 h1         1 XKB       0.054200
     50 H15          5.3200     7.0610     5.6360 hc         1 XKB       0.049700
     51 H16          5.1970     8.7280     6.1660 hc         1 XKB       0.049700
     52 H17          2.9840     5.9530     4.8350 h4         1 XKB       0.207000
     53 H18          0.4720     6.4980     5.2190 hn         1 XKB       0.354000
     54 H19          3.5660     9.8640     8.1190 ha         1 XKB       0.111000
     55 H20          1.5240    11.0060     9.0220 ha         1 XKB       0.113000
     56 H21         -0.7500    10.2420     8.3270 ha         1 XKB       0.113000
     57 H22         -0.9960     8.3280     6.7190 ha         1 XKB       0.116000
     58 H23          9.5110     7.3700    -0.5260 hn         1 XKB       0.493000
     59 H24          8.3840     7.5400    -1.8000 hn         1 XKB       0.493000
     60 C23          7.5290     3.8080     6.8640 c3         1 XKB       0.167600
@<TRIPOS>BOND
     1     1    19 1   
     2     1    20 2   
     3     1    35 1   
     4     2     3 2   
     5     2    16 1   
     6     2    20 1   
     7     3     4 1   
     8     3    18 1   
     9     4     5 2   
    10     4    19 1   
    11     5    21 1   
    12     6     7 1   
    13     6     8 1   
    14     6    23 2   
    15     7    24 1   
    16     7    36 1   
    17     8    60 1   
    18     9    10 1   
    19     9    11 1   
    20     9    39 1   
    21     9    60 1   
    22    10    15 1   
    23    11    12 1   
    24    11    13 1   
    25    11    40 1   
    26    12    41 1   
    27    13    14 1   
    28    13    15 1   
    29    13    42 1   
    30    14    43 1   
    31    15    16 1   
    32    15    44 1   
    33    16    17 1   
    34    17    18 2   
    35    17    45 1   
    36    19    22 1   
    37    21    22 2   
    38    21    46 1   
    39    22    47 1   
    40    24    25 1   
    41    24    48 1   
    42    24    49 1   
    43    25    26 1   
    44    25    50 1   
    45    25    51 1   
    46    26    27 2   
    47    26    30 1   
    48    27    28 1   
    49    27    52 1   
    50    28    29 1   
    51    28    53 1   
    52    29    30 ar  
    53    29    34 ar  
    54    30    31 ar  
    55    31    32 ar  
    56    31    54 1   
    57    32    33 ar  
    58    32    55 1   
    59    33    34 ar  
    60    33    56 1   
    61    34    57 1   
    62    35    58 1   
    63    35    59 1   
    64    37    60 1   
    65    38    60 1   
@<TRIPOS>SUBSTRUCTURE
     1 XKB         1 TEMP              0 ****  ****    0 ROOT
