@<TRIPOS>MOLECULE
XKB
   60    65     1     0     0
SMALL
abcg2


@<TRIPOS>ATOM
      1 C2           9.4250     5.9590    -0.9600 cc         1 XKB       0.797400
      2 C4           7.6780     5.6070     0.4130 cd         1 XKB       0.373500
      3 C5           6.9320     4.8560    -0.4850 cc         1 XKB       0.016400
      4 C6           7.5000     4.6510    -1.7610 cc         1 XKB       0.033000
      5 N6           7.1090     4.0280    -2.8550 nd         1 XKB      -0.267600
      6 C11          4.6520     4.9330     7.6040 c          1 XKB       0.635100
      7 N12          4.5300     5.4270     8.8500 ns         1 XKB      -0.486900
      8 O5           5.7610     5.3980     6.9870 os         1 XKB      -0.475100
      9 C22          7.0600     5.8940     5.0820 c5         1 XKB       0.127300
     10 O4           7.4830     5.3610     3.8080 os         1 XKB      -0.453000
     11 C3           6.6190     7.3430     4.8260 c5         1 XKB       0.106300
     12 O3           7.6870     8.2630     4.9960 oh         1 XKB      -0.694000
     13 C7           6.2460     7.2950     3.3390 c5         1 XKB       0.138300
     14 O2           6.3020     8.5090     2.6300 oh         1 XKB      -0.676000
     15 C1           7.2920     6.3300     2.7860 c5         1 XKB       0.313300
     16 N9           6.9160     5.6730     1.5610 na         1 XKB      -0.270300
     17 C8           5.7670     4.9570     1.3040 cd         1 XKB       0.386700
     18 N7           5.7410     4.4560     0.0910 nc         1 XKB      -0.507100
     19 N1           8.7660     5.2420    -1.9450 na         1 XKB      -0.151400
     20 N3           8.8950     6.1510     0.2230 nd         1 XKB      -0.758000
     21 C9           8.1230     4.2130    -3.7710 cd         1 XKB      -0.028400
     22 C10          9.1470     4.9490    -3.2520 cc         1 XKB      -0.272100
     23 O11          3.8740     4.1440     7.0850 o          1 XKB      -0.540000
     24 C12          5.3400     6.4850     9.4410 c3         1 XKB       0.121000
     25 C13          5.1780     7.8640     8.7730 c3         1 XKB      -0.023200
     26 C14          3.7550     8.2730     8.5800 cc         1 XKB      -0.149400
     27 C15          3.0750     8.3160     7.3900 cd         1 XKB      -0.149100
     28 N15          1.7640     8.6830     7.6060 na         1 XKB      -0.229700
     29 C16          1.5660     8.8860     8.9490 ca         1 XKB      -0.042200
     30 C21          2.8050     8.6310     9.6010 ca         1 XKB      -0.097800
     31 C20          2.8780     8.7680    10.9940 ca         1 XKB      -0.067000
     32 C19          1.7440     9.1470    11.6940 ca         1 XKB      -0.137000
     33 C18          0.5290     9.3960    11.0280 ca         1 XKB      -0.089000
     34 C17          0.4240     9.2690     9.6510 ca         1 XKB      -0.126000
     35 N2          10.6230     6.5030    -1.2800 nv         1 XKB      -1.059900
     36 H1           3.6710     5.1780     9.3150 hn         1 XKB       0.338500
     37 H2           5.0400     5.0990     5.0610 h1         1 XKB       0.066200
     38 H3           6.2850     3.9510     5.5910 h1         1 XKB       0.066200
     39 H4           7.9130     5.8830     5.7640 h1         1 XKB       0.085700
     40 H5           5.7670     7.6190     5.4500 h1         1 XKB       0.058700
     41 H6           7.9100     8.2950     5.9350 ho         1 XKB       0.508000
     42 H7           5.2560     6.8380     3.2560 h1         1 XKB       0.045700
     43 H8           5.5130     9.0280     2.8330 ho         1 XKB       0.512000
     44 H9           8.2200     6.8650     2.5750 h2         1 XKB       0.123700
     45 H10          4.9980     4.8310     2.0490 h5         1 XKB       0.066800
     46 H11          8.0600     3.8030    -4.7670 h4         1 XKB       0.228000
     47 H12         10.0710     5.2870    -3.6840 h4         1 XKB       0.225000
     48 H13          6.3920     6.1960     9.4170 h1         1 XKB       0.054200
     49 H14          5.0390     6.5420    10.4860 h1         1 XKB       0.054200
     50 H15          5.6850     7.8550     7.8090 hc         1 XKB       0.049700
     51 H16          5.7070     8.5870     9.4030 hc         1 XKB       0.049700
     52 H17          3.4290     8.1090     6.3930 h4         1 XKB       0.207000
     53 H18          1.0690     8.8030     6.8870 hn         1 XKB       0.354000
     54 H19          3.8080     8.5810    11.5170 ha         1 XKB       0.111000
     55 H20          1.7880     9.2560    12.7700 ha         1 XKB       0.113000
     56 H21         -0.3410     9.6910    11.6020 ha         1 XKB       0.113000
     57 H22         -0.5100     9.4610     9.1380 ha         1 XKB       0.116000
     58 H23         11.1460     6.8810    -0.5050 hn         1 XKB       0.493000
     59 H24         11.1800     6.0820    -2.0070 hn         1 XKB       0.493000
     60 C23          5.9650     4.9930     5.6270 c3         1 XKB       0.167600
@<TRIPOS>BOND
     1     1    19 1   
     2     1    20 2   
     3     1    35 1   
     4     2     3 2   
     5     2    16 1   
     6     2    20 1   
     7     3     4 1   
     8     3    18 1   
     9     4     5 2   
    10     4    19 1   
    11     5    21 1   
    12     6     7 1   
    13     6     8 1   
    14     6    23 2   
    15     7    24 1   
    16     7    36 1   
    17     8    60 1   
    18     9    10 1   
    19     9    11 1   
    20     9    39 1   
    21     9    60 1   
    22    10    15 1   
    23    11    12 1   
    24    11    13 1   
    25    11    40 1   
    26    12    41 1   
    27    13    14 1   
    28    13    15 1   
    29    13    42 1   
    30    14    43 1   
    31    15    16 1   
    32    15    44 1   
    33    16    17 1   
    34    17    18 2   
    35    17    45 1   
    36    19    22 1   
    37    21    22 2   
    38    21    46 1   
    39    22    47 1   
    40    24    25 1   
    41    24    48 1   
    42    24    49 1   
    43    25    26 1   
    44    25    50 1   
    45    25    51 1   
    46    26    27 2   
    47    26    30 1   
    48    27    28 1   
    49    27    52 1   
    50    28    29 1   
    51    28    53 1   
    52    29    30 ar  
    53    29    34 ar  
    54    30    31 ar  
    55    31    32 ar  
    56    31    54 1   
    57    32    33 ar  
    58    32    55 1   
    59    33    34 ar  
    60    33    56 1   
    61    34    57 1   
    62    35    58 1   
    63    35    59 1   
    64    37    60 1   
    65    38    60 1   
@<TRIPOS>SUBSTRUCTURE
     1 XKB         1 TEMP              0 ****  ****    0 ROOT
