@<TRIPOS>MOLECULE
XKE
   77    81     1     0     0
SMALL
abcg2


@<TRIPOS>ATOM
      1 C15         26.0470   -32.2940     3.3850 c3         1 XKE      -0.079400
      2 C12         25.9170   -29.9630     5.5270 c2         1 XKE      -0.109400
      3 C10         25.1780   -27.7600     4.8440 c5         1 XKE      -0.060700
      4 C18         25.7710   -35.3410     2.6980 c3         1 XKE      -0.072400
      5 C13         25.8750   -31.4400     5.8070 c3         1 XKE      -0.027200
      6 C20         25.4460   -35.6370     0.1710 c3         1 XKE      -0.075400
      7 C16         26.8930   -33.0390     2.3490 c3         1 XKE      -0.073400
      8 C17         27.0750   -34.5390     2.6050 c3         1 XKE      -0.074400
      9 C11         24.7980   -29.2530     4.8170 c5         1 XKE      -0.037200
     10 C19         24.8320   -35.1980     1.4970 c3         1 XKE      -0.073400
     11 C14         26.6510   -32.2910     4.7870 c3         1 XKE      -0.071400
     12 C01         28.6780   -26.3690     4.7540 c2         1 XKE      -0.303000
     13 C03         27.5500   -27.6090     2.9900 ca         1 XKE      -0.050800
     14 C04         27.4470   -26.6410     1.9840 ca         1 XKE      -0.101000
     15 C05         27.3390   -27.0040     0.6460 ca         1 XKE      -0.115500
     16 C06         27.3310   -28.3480     0.2860 ca         1 XKE      -0.112000
     17 C07         27.4340   -29.3210     1.2750 ca         1 XKE      -0.115500
     18 C08         27.5380   -28.9560     2.6130 ca         1 XKE      -0.101000
     19 C09         26.6480   -27.6820     5.4160 c5         1 XKE       0.038400
     20 C21         24.4470   -35.5040    -0.9880 c3         1 XKE      -0.116700
     21 C22         25.0170   -35.9410    -2.2870 cc         1 XKE       0.407800
     22 C27         26.9180   -29.1330     5.8360 ce         1 XKE      -0.070400
     23 C28         28.1430   -29.5030     6.5770 ca         1 XKE      -0.037800
     24 C29         29.3850   -29.6050     5.9430 ca         1 XKE      -0.101500
     25 C30         30.5240   -29.9550     6.6600 ca         1 XKE      -0.113000
     26 C31         30.4440   -30.2050     8.0260 ca         1 XKE      -0.110000
     27 C32         29.2150   -30.1050     8.6710 ca         1 XKE      -0.113000
     28 C33         28.0770   -29.7560     7.9510 ca         1 XKE      -0.101500
     29 C34         24.3160   -26.9320     5.8030 c5         1 XKE       0.166300
     30 C36         25.0850   -26.9480     7.1220 c5         1 XKE      -0.112400
     31 C37         26.5360   -26.7840     6.6760 c5         1 XKE      -0.064400
     32 N23         25.9660   -35.2930    -2.9800 na         1 XKE      -0.229700
     33 N24         26.2660   -35.9880    -4.0870 nc         1 XKE      -0.199800
     34 N25         25.5160   -37.0340    -4.0650 nd         1 XKE      -0.042000
     35 N26         24.7260   -37.0400    -2.9620 nd         1 XKE      -0.390000
     36 O35         24.2300   -25.6000     5.2650 oh         1 XKE      -0.666000
     37 H1          25.9200   -31.2660     3.0420 hc         1 XKE       0.040700
     38 H2          25.0410   -32.7230     3.4290 hc         1 XKE       0.040700
     39 H3          25.1110   -27.3240     3.8500 hc         1 XKE       0.087700
     40 H4          25.2260   -35.0460     3.5990 hc         1 XKE       0.042200
     41 H5          26.0230   -36.3990     2.8280 hc         1 XKE       0.042200
     42 H6          24.8330   -31.7740     5.8320 hc         1 XKE       0.047200
     43 H7          26.2910   -31.6300     6.7980 hc         1 XKE       0.047200
     44 H8          25.7790   -36.6770     0.2410 hc         1 XKE       0.047700
     45 H9          26.3310   -35.0370    -0.0540 hc         1 XKE       0.047700
     46 H10         27.8830   -32.5710     2.3060 hc         1 XKE       0.034700
     47 H11         26.4490   -32.8910     1.3610 hc         1 XKE       0.034700
     48 H12         27.6370   -34.6880     3.5310 hc         1 XKE       0.039200
     49 H13         27.7010   -34.9520     1.8080 hc         1 XKE       0.039200
     50 H14         23.8410   -29.4410     5.3170 hc         1 XKE       0.053200
     51 H15         24.6800   -29.6210     3.7950 hc         1 XKE       0.053200
     52 H16         24.4990   -34.1590     1.4080 hc         1 XKE       0.041200
     53 H17         23.9310   -35.7910     1.6830 hc         1 XKE       0.041200
     54 H18         26.7050   -33.3150     5.1660 hc         1 XKE       0.043200
     55 H19         27.6810   -31.9240     4.7360 hc         1 XKE       0.043200
     56 H20         28.8120   -26.0150     5.7670 ha         1 XKE       0.168500
     57 H21         29.4120   -26.0510     4.0240 ha         1 XKE       0.168500
     58 H22         27.4390   -25.5950     2.2610 ha         1 XKE       0.119500
     59 H23         27.2550   -26.2370    -0.1130 ha         1 XKE       0.110000
     60 H24         27.2450   -28.6350    -0.7550 ha         1 XKE       0.109000
     61 H25         27.4350   -30.3690     1.0070 ha         1 XKE       0.110000
     62 H26         27.6220   -29.7220     3.3670 ha         1 XKE       0.119500
     63 H27         24.1240   -34.4620    -1.0730 hc         1 XKE       0.071700
     64 H28         23.5600   -36.1090    -0.7940 hc         1 XKE       0.071700
     65 H29         29.4600   -29.4190     4.8810 ha         1 XKE       0.115500
     66 H30         31.4760   -30.0350     6.1490 ha         1 XKE       0.112500
     67 H31         31.3320   -30.4770     8.5840 ha         1 XKE       0.112000
     68 H32         29.1410   -30.2970     9.7340 ha         1 XKE       0.112500
     69 H33         27.1220   -29.6770     8.4550 ha         1 XKE       0.115500
     70 H34         23.3070   -27.3450     5.8980 h1         1 XKE       0.040700
     71 H35         24.7490   -26.1680     7.8090 hc         1 XKE       0.049200
     72 H36         24.9370   -27.9130     7.6140 hc         1 XKE       0.049200
     73 H37         27.2590   -27.0570     7.4450 hc         1 XKE       0.055700
     74 H38         26.7160   -25.7440     6.4050 hc         1 XKE       0.055700
     75 H39         26.4310   -34.4190    -2.7730 hn         1 XKE       0.384000
     76 H40         23.8090   -25.0380     5.9270 ho         1 XKE       0.438000
     77 C02         27.6750   -27.1790     4.4100 ce         1 XKE      -0.041400
@<TRIPOS>BOND
     1     1     7 1   
     2     1    11 1   
     3     1    37 1   
     4     1    38 1   
     5     2     5 1   
     6     2     9 1   
     7     2    22 2   
     8     3     9 1   
     9     3    19 1   
    10     3    29 1   
    11     3    39 1   
    12     4     8 1   
    13     4    10 1   
    14     4    40 1   
    15     4    41 1   
    16     5    11 1   
    17     5    42 1   
    18     5    43 1   
    19     6    10 1   
    20     6    20 1   
    21     6    44 1   
    22     6    45 1   
    23     7     8 1   
    24     7    46 1   
    25     7    47 1   
    26     8    48 1   
    27     8    49 1   
    28     9    50 1   
    29     9    51 1   
    30    10    52 1   
    31    10    53 1   
    32    11    54 1   
    33    11    55 1   
    34    12    56 1   
    35    12    57 1   
    36    12    77 2   
    37    13    14 ar  
    38    13    18 ar  
    39    13    77 1   
    40    14    15 ar  
    41    14    58 1   
    42    15    16 ar  
    43    15    59 1   
    44    16    17 ar  
    45    16    60 1   
    46    17    18 ar  
    47    17    61 1   
    48    18    62 1   
    49    19    22 1   
    50    19    31 1   
    51    19    77 1   
    52    20    21 1   
    53    20    63 1   
    54    20    64 1   
    55    21    32 1   
    56    21    35 2   
    57    22    23 1   
    58    23    24 ar  
    59    23    28 ar  
    60    24    25 ar  
    61    24    65 1   
    62    25    26 ar  
    63    25    66 1   
    64    26    27 ar  
    65    26    67 1   
    66    27    28 ar  
    67    27    68 1   
    68    28    69 1   
    69    29    30 1   
    70    29    36 1   
    71    29    70 1   
    72    30    31 1   
    73    30    71 1   
    74    30    72 1   
    75    31    73 1   
    76    31    74 1   
    77    32    33 1   
    78    32    75 1   
    79    33    34 2   
    80    34    35 1   
    81    36    76 1   
@<TRIPOS>SUBSTRUCTURE
     1 XKE         1 TEMP              0 ****  ****    0 ROOT
