@<TRIPOS>MOLECULE
XKE
   77    81     1     0     0
SMALL
No Charge or Current Charge


@<TRIPOS>ATOM
      1 C15         25.9680   -32.2030     3.3350 c3         1 XKE      -0.079400
      2 C12         25.8140   -29.8270     5.5040 c2         1 XKE      -0.109400
      3 C10         25.2560   -27.4770     4.8870 c5         1 XKE      -0.060700
      4 C18         25.7600   -35.3290     2.7140 c3         1 XKE      -0.072400
      5 C13         25.6420   -31.3160     5.7520 c3         1 XKE      -0.027200
      6 C20         25.5340   -35.8130     0.1670 c3         1 XKE      -0.075400
      7 C16         26.8730   -32.9770     2.3460 c3         1 XKE      -0.073400
      8 C17         27.0620   -34.4880     2.6430 c3         1 XKE      -0.074400
      9 C11         24.7840   -28.9790     4.7770 c5         1 XKE      -0.037200
     10 C19         24.8590   -35.2850     1.4540 c3         1 XKE      -0.073400
     11 C14         26.4780   -32.1990     4.7970 c3         1 XKE      -0.071400
     12 C01         28.8960   -26.4120     4.6580 c2         1 XKE      -0.303000
     13 C03         27.5290   -27.4260     2.9390 ca         1 XKE      -0.050800
     14 C04         27.3330   -26.4010     1.9920 ca         1 XKE      -0.101000
     15 C05         27.1120   -26.7150     0.6400 ca         1 XKE      -0.115500
     16 C06         27.0900   -28.0570     0.2240 ca         1 XKE      -0.112000
     17 C07         27.2930   -29.0840     1.1620 ca         1 XKE      -0.115500
     18 C08         27.5140   -28.7680     2.5130 ca         1 XKE      -0.101000
     19 C09         26.7340   -27.5710     5.4290 c5         1 XKE       0.038400
     20 C21         24.5800   -35.8310    -1.0500 c3         1 XKE      -0.116700
     21 C22         25.2330   -36.3410    -2.3050 cc         1 XKE       0.407800
     22 C27         26.8530   -29.0360     5.8180 ce         1 XKE      -0.070400
     23 C28         28.0480   -29.5480     6.5450 ca         1 XKE      -0.037800
     24 C29         29.3120   -29.6180     5.9300 ca         1 XKE      -0.101500
     25 C30         30.4310   -30.1040     6.6400 ca         1 XKE      -0.113000
     26 C31         30.3170   -30.5300     7.9800 ca         1 XKE      -0.110000
     27 C32         29.0760   -30.4750     8.6370 ca         1 XKE      -0.113000
     28 C33         27.9510   -29.9810     7.9060 ca         1 XKE      -0.101500
     29 C34         24.4430   -26.7750     6.0390 c5         1 XKE       0.166300
     30 C36         25.3410   -26.9550     7.2970 c5         1 XKE      -0.112400
     31 C37         26.7560   -26.6870     6.7170 c5         1 XKE      -0.064400
     32 N23         26.0000   -35.6140    -3.1660 na         1 XKE      -0.229700
     33 N24         26.4320   -36.3920    -4.1890 nc         1 XKE      -0.199800
     34 N25         25.9270   -37.5700    -3.9360 nd         1 XKE      -0.042000
     35 N26         25.1820   -37.5680    -2.7790 nd         1 XKE      -0.390000
     36 O35         24.2350   -25.3910     5.7510 oh         1 XKE      -0.666000
     37 H1          25.8900   -31.1710     2.9780 hc         1 XKE       0.040700
     38 H2          24.9510   -32.6110     3.3050 hc         1 XKE       0.040700
     39 H3          25.1470   -26.9390     3.9400 hc         1 XKE       0.087700
     40 H4          25.1690   -35.0030     3.5790 hc         1 XKE       0.042200
     41 H5          26.0320   -36.3720     2.9140 hc         1 XKE       0.042200
     42 H6          24.5840   -31.5960     5.6700 hc         1 XKE       0.047200
     43 H7          25.9320   -31.5540     6.7810 hc         1 XKE       0.047200
     44 H8          25.9080   -36.8290     0.3450 hc         1 XKE       0.047700
     45 H9          26.4030   -35.1890    -0.0750 hc         1 XKE       0.047700
     46 H10         27.8620   -32.5010     2.3310 hc         1 XKE       0.034700
     47 H11         26.4690   -32.8580     1.3330 hc         1 XKE       0.034700
     48 H12         27.6010   -34.6010     3.5910 hc         1 XKE       0.039200
     49 H13         27.7230   -34.9130     1.8790 hc         1 XKE       0.039200
     50 H14         23.7790   -29.1450     5.1800 hc         1 XKE       0.053200
     51 H15         24.7340   -29.2780     3.7240 hc         1 XKE       0.053200
     52 H16         24.5070   -34.2600     1.2880 hc         1 XKE       0.041200
     53 H17         23.9640   -35.8870     1.6540 hc         1 XKE       0.041200
     54 H18         26.4630   -33.2250     5.1820 hc         1 XKE       0.043200
     55 H19         27.5230   -31.8690     4.8210 hc         1 XKE       0.043200
     56 H20         29.1810   -26.1470     5.6760 ha         1 XKE       0.168500
     57 H21         29.5940   -26.1180     3.8740 ha         1 XKE       0.168500
     58 H22         27.3450   -25.3610     2.3100 ha         1 XKE       0.119500
     59 H23         26.9570   -25.9190    -0.0850 ha         1 XKE       0.110000
     60 H24         26.9190   -28.3010    -0.8220 ha         1 XKE       0.109000
     61 H25         27.2810   -30.1230     0.8410 ha         1 XKE       0.110000
     62 H26         27.6780   -29.5680     3.2290 ha         1 XKE       0.119500
     63 H27         24.1980   -34.8190    -1.2270 hc         1 XKE       0.071700
     64 H28         23.7090   -36.4550    -0.8180 hc         1 XKE       0.071700
     65 H29         29.4330   -29.3000     4.8980 ha         1 XKE       0.115500
     66 H30         31.3980   -30.1510     6.1450 ha         1 XKE       0.112500
     67 H31         31.1930   -30.9010     8.5080 ha         1 XKE       0.112000
     68 H32         28.9740   -30.7970     9.6700 ha         1 XKE       0.112500
     69 H33         26.9860   -29.9280     8.4050 ha         1 XKE       0.115500
     70 H34         23.4630   -27.2470     6.1970 h1         1 XKE       0.040700
     71 H35         25.0830   -26.2580     8.1030 hc         1 XKE       0.049200
     72 H36         25.2510   -27.9650     7.7150 hc         1 XKE       0.049200
     73 H37         27.5560   -26.9590     7.4150 hc         1 XKE       0.055700
     74 H38         26.8840   -25.6240     6.4780 hc         1 XKE       0.055700
     75 H39         26.2370   -34.6320    -3.0890 hn         1 XKE       0.384000
     76 H40         23.7720   -25.0070     6.5280 ho         1 XKE       0.438000
     77 C02         27.7560   -27.0820     4.3730 ce         1 XKE      -0.041400
@<TRIPOS>BOND
     1     1     7 1   
     2     1    11 1   
     3     1    37 1   
     4     1    38 1   
     5     2     5 1   
     6     2     9 1   
     7     2    22 2   
     8     3     9 1   
     9     3    19 1   
    10     3    29 1   
    11     3    39 1   
    12     4     8 1   
    13     4    10 1   
    14     4    40 1   
    15     4    41 1   
    16     5    11 1   
    17     5    42 1   
    18     5    43 1   
    19     6    10 1   
    20     6    20 1   
    21     6    44 1   
    22     6    45 1   
    23     7     8 1   
    24     7    46 1   
    25     7    47 1   
    26     8    48 1   
    27     8    49 1   
    28     9    50 1   
    29     9    51 1   
    30    10    52 1   
    31    10    53 1   
    32    11    54 1   
    33    11    55 1   
    34    12    56 1   
    35    12    57 1   
    36    12    77 2   
    37    13    14 ar  
    38    13    18 ar  
    39    13    77 1   
    40    14    15 ar  
    41    14    58 1   
    42    15    16 ar  
    43    15    59 1   
    44    16    17 ar  
    45    16    60 1   
    46    17    18 ar  
    47    17    61 1   
    48    18    62 1   
    49    19    22 1   
    50    19    31 1   
    51    19    77 1   
    52    20    21 1   
    53    20    63 1   
    54    20    64 1   
    55    21    32 1   
    56    21    35 2   
    57    22    23 1   
    58    23    24 ar  
    59    23    28 ar  
    60    24    25 ar  
    61    24    65 1   
    62    25    26 ar  
    63    25    66 1   
    64    26    27 ar  
    65    26    67 1   
    66    27    28 ar  
    67    27    68 1   
    68    28    69 1   
    69    29    30 1   
    70    29    36 1   
    71    29    70 1   
    72    30    31 1   
    73    30    71 1   
    74    30    72 1   
    75    31    73 1   
    76    31    74 1   
    77    32    33 1   
    78    32    75 1   
    79    33    34 2   
    80    34    35 1   
    81    36    76 1   
@<TRIPOS>SUBSTRUCTURE
     1 XKE         1 TEMP              0 ****  ****    0 ROOT
