@<TRIPOS>MOLECULE
XKF
   63    68     1     0     0
SMALL
abcg2


@<TRIPOS>ATOM
      1 N1           7.8490     5.1700    -1.9440 na         1 XKF      -0.153400
      2 C2           8.3800     5.9830    -0.9490 cc         1 XKF       0.814400
      3 C3          10.2560     7.3450    -0.1750 c3         1 XKF       0.227100
      4 N2           9.5760     6.5500    -1.1840 nu         1 XKF      -0.941100
      5 C4           6.5390     5.5980     0.2880 cd         1 XKF       0.373500
      6 C5           5.9200     4.7510    -0.6200 cc         1 XKF       0.012400
      7 C6           6.6090     4.5140    -1.8310 cc         1 XKF       0.037000
      8 N3           7.7330     6.2070     0.1720 nd         1 XKF      -0.768000
      9 C8           4.5970     4.8760     1.0540 cd         1 XKF       0.393700
     10 C9           7.4250     4.0040    -3.7530 cd         1 XKF      -0.027400
     11 C10          8.3570     4.8290    -3.1950 cc         1 XKF      -0.279100
     12 C11          3.4080     6.1470     7.3100 c          1 XKF       0.628100
     13 N12          3.4150     6.6830     8.5460 ns         1 XKF      -0.484900
     14 O5           4.6360     5.6980     6.9540 os         1 XKF      -0.472100
     15 C23          5.7370     6.1660     4.8840 c5         1 XKF       0.123300
     16 O4           6.1370     5.5360     3.6480 os         1 XKF      -0.457000
     17 C22          5.0640     7.4940     4.5100 c5         1 XKF       0.096300
     18 O3           5.9620     8.5970     4.5970 oh         1 XKF      -0.728000
     19 C7           4.7300     7.3010     3.0270 c5         1 XKF       0.134300
     20 O2           4.5790     8.4980     2.3090 oh         1 XKF      -0.685000
     21 C1           5.9050     6.4310     2.5650 c5         1 XKF       0.281300
     22 N9           5.6750     5.6800     1.3620 na         1 XKF      -0.266300
     23 N7           4.7090     4.3080    -0.1230 nc         1 XKF      -0.509100
     24 N6           6.3480     3.8090    -2.9140 nd         1 XKF      -0.269600
     25 O11          2.4170     6.0570     6.5990 o          1 XKF      -0.542000
     26 C12          4.6040     7.0210     9.3180 c3         1 XKF       0.114000
     27 C13          5.2150     8.3820     8.9430 c3         1 XKF      -0.025200
     28 C14          4.3220     9.5450     9.2440 cc         1 XKF      -0.157400
     29 C15          4.2550    10.2370    10.4270 cd         1 XKF      -0.148100
     30 N15          3.2840    11.2120    10.3530 na         1 XKF      -0.231700
     31 C16          2.7010    11.1780     9.1100 ca         1 XKF      -0.044200
     32 C21          3.3320    10.1330     8.3800 ca         1 XKF      -0.099800
     33 C20          2.9220     9.8920     7.0610 ca         1 XKF      -0.071000
     34 C19          1.9160    10.6690     6.5120 ca         1 XKF      -0.129000
     35 C18          1.3020    11.6940     7.2560 ca         1 XKF      -0.088000
     36 C17          1.6870    11.9620     8.5610 ca         1 XKF      -0.125000
     37 H1          11.1890     7.7020    -0.6040 h1         1 XKF       0.048033
     38 H2           9.6440     8.2010     0.1100 h1         1 XKF       0.048033
     39 H3          10.4700     6.7590     0.7220 h1         1 XKF       0.048033
     40 H4          10.1260     6.2140    -1.9560 hn         1 XKF       0.501000
     41 H5           3.7740     4.7450     1.7360 h5         1 XKF       0.069800
     42 H6           7.4700     3.5380    -4.7240 h4         1 XKF       0.227000
     43 H7           9.2930     5.1960    -3.5730 h4         1 XKF       0.221000
     44 H8           2.5420     7.1070     8.8190 hn         1 XKF       0.337500
     45 H9           3.8690     5.0860     5.1200 h1         1 XKF       0.081700
     46 H10          5.3090     4.2260     5.7110 h1         1 XKF       0.081700
     47 H11          6.6250     6.3670     5.4870 h1         1 XKF       0.082700
     48 H12          4.1700     7.6800     5.1010 h1         1 XKF       0.075700
     49 H13          5.8220     9.0560     5.4340 ho         1 XKF       0.522000
     50 H14          3.8030     6.7340     2.9370 h1         1 XKF       0.091700
     51 H15          5.1810     9.1410     2.7170 ho         1 XKF       0.524000
     52 H16          6.7830     7.0540     2.3760 h2         1 XKF       0.103700
     53 H17          5.3420     6.2330     9.1810 h1         1 XKF       0.060700
     54 H18          4.3140     7.0280    10.3690 h1         1 XKF       0.060700
     55 H19          6.1530     8.4830     9.4940 hc         1 XKF       0.049200
     56 H20          5.4710     8.3670     7.8810 hc         1 XKF       0.049200
     57 H21          4.8340    10.1120    11.3290 h4         1 XKF       0.213000
     58 H22          3.0590    11.8630    11.0870 hn         1 XKF       0.353000
     59 H23          3.3840     9.1080     6.4780 ha         1 XKF       0.102000
     60 H24          1.5950    10.4870     5.4940 ha         1 XKF       0.118000
     61 H25          0.5170    12.2850     6.8010 ha         1 XKF       0.115000
     62 H26          1.2190    12.7520     9.1350 ha         1 XKF       0.115000
     63 C24          4.8270     5.1980     5.6230 c3         1 XKF       0.165600
@<TRIPOS>BOND
     1     1     2 1   
     2     1     7 1   
     3     1    11 1   
     4     2     4 1   
     5     2     8 2   
     6     3     4 1   
     7     3    37 1   
     8     3    38 1   
     9     3    39 1   
    10     4    40 1   
    11     5     6 2   
    12     5     8 1   
    13     5    22 1   
    14     6     7 1   
    15     6    23 1   
    16     7    24 2   
    17     9    22 1   
    18     9    23 2   
    19     9    41 1   
    20    10    11 2   
    21    10    24 1   
    22    10    42 1   
    23    11    43 1   
    24    12    13 1   
    25    12    14 1   
    26    12    25 2   
    27    13    26 1   
    28    13    44 1   
    29    14    63 1   
    30    15    16 1   
    31    15    17 1   
    32    15    47 1   
    33    15    63 1   
    34    16    21 1   
    35    17    18 1   
    36    17    19 1   
    37    17    48 1   
    38    18    49 1   
    39    19    20 1   
    40    19    21 1   
    41    19    50 1   
    42    20    51 1   
    43    21    22 1   
    44    21    52 1   
    45    26    27 1   
    46    26    53 1   
    47    26    54 1   
    48    27    28 1   
    49    27    55 1   
    50    27    56 1   
    51    28    29 2   
    52    28    32 1   
    53    29    30 1   
    54    29    57 1   
    55    30    31 1   
    56    30    58 1   
    57    31    32 ar  
    58    31    36 ar  
    59    32    33 ar  
    60    33    34 ar  
    61    33    59 1   
    62    34    35 ar  
    63    34    60 1   
    64    35    36 ar  
    65    35    61 1   
    66    36    62 1   
    67    45    63 1   
    68    46    63 1   
@<TRIPOS>SUBSTRUCTURE
     1 XKF         1 TEMP              0 ****  ****    0 ROOT
