@<TRIPOS>MOLECULE
XKF
   63    68     1     0     0
SMALL
No Charge or Current Charge


@<TRIPOS>ATOM
      1 N1           8.7850     5.5290     1.9830 na         1 XKF      -0.153400
      2 C2           8.2140     6.6920     1.4110 cc         1 XKF       0.814400
      3 C3           8.5150     8.7980     0.0230 c3         1 XKF       0.227100
      4 N2           8.9670     7.5490     0.6620 nu         1 XKF      -0.941100
      5 C4           6.1820     6.0910     2.3400 cd         1 XKF       0.373500
      6 C5           6.6890     4.9560     2.8940 cc         1 XKF       0.012400
      7 C6           8.0560     4.6540     2.7090 cc         1 XKF       0.037000
      8 N3           6.9200     6.9970     1.5760 nd         1 XKF      -0.768000
      9 C8           4.6310     4.9560     3.4300 cd         1 XKF       0.393700
     10 C9          10.0870     3.9290     2.5790 cd         1 XKF      -0.027400
     11 C10         10.0940     5.1120     1.8590 cc         1 XKF      -0.279100
     12 C11          2.2920     7.0720     6.5470 c          1 XKF       0.628100
     13 N12          3.3090     6.8660     7.4450 ns         1 XKF      -0.484900
     14 O5           2.3650     6.2090     5.4890 os         1 XKF      -0.472100
     15 C23          1.9140     7.6490     3.5320 c5         1 XKF       0.123300
     16 O4           3.3610     7.7740     3.5000 os         1 XKF      -0.457000
     17 C22          1.5100     7.5920     2.0230 c5         1 XKF       0.096300
     18 O3           1.5700     8.8760     1.3620 oh         1 XKF      -0.728000
     19 C7           2.6280     6.6560     1.4770 c5         1 XKF       0.134300
     20 O2           2.7520     6.8680     0.0670 oh         1 XKF      -0.685000
     21 C1           3.8760     7.1340     2.3060 c5         1 XKF       0.281300
     22 N9           4.8510     6.1110     2.6730 na         1 XKF      -0.266300
     23 N7           5.7470     4.2390     3.5700 nc         1 XKF      -0.509100
     24 N6           8.8220     3.6530     3.1000 nd         1 XKF      -0.269600
     25 O11          1.4300     7.9190     6.7080 o          1 XKF      -0.542000
     26 C12          4.4650     5.9800     7.2530 c3         1 XKF       0.114000
     27 C13          5.6050     6.6460     6.4490 c3         1 XKF      -0.025200
     28 C14          6.2240     7.8280     7.1520 cc         1 XKF      -0.157400
     29 C15          7.3370     7.8180     7.9890 cd         1 XKF      -0.148100
     30 N15          7.5740     9.1260     8.4810 na         1 XKF      -0.231700
     31 C16          6.5920     9.9260     7.9260 ca         1 XKF      -0.044200
     32 C21          5.7680     9.1910     7.1190 ca         1 XKF      -0.099800
     33 C20          4.7020     9.7790     6.4200 ca         1 XKF      -0.071000
     34 C19          4.4840    11.1630     6.5840 ca         1 XKF      -0.129000
     35 C18          5.3290    11.9230     7.4270 ca         1 XKF      -0.088000
     36 C17          6.4010    11.3030     8.1070 ca         1 XKF      -0.125000
     37 H1           9.3440     9.2790    -0.5150 h1         1 XKF       0.048033
     38 H2           7.7090     8.5950    -0.6970 h1         1 XKF       0.048033
     39 H3           8.1390     9.5040     0.7770 h1         1 XKF       0.048033
     40 H4           9.9390     7.2730     0.5670 hn         1 XKF       0.501000
     41 H5           3.6560     4.7000     3.8250 h5         1 XKF       0.069800
     42 H6          10.9250     3.2540     2.7490 h4         1 XKF       0.227000
     43 H7          10.8850     5.6270     1.3210 h4         1 XKF       0.221000
     44 H8           3.3110     7.4840     8.2460 hn         1 XKF       0.337500
     45 H9           0.4290     6.5470     4.7130 h1         1 XKF       0.081700
     46 H10          1.4690     5.5140     3.7370 h1         1 XKF       0.081700
     47 H11          1.5010     8.5420     4.0200 h1         1 XKF       0.082700
     48 H12          0.5140     7.1400     1.8950 h1         1 XKF       0.075700
     49 H13          0.9220     9.4750     1.8070 ho         1 XKF       0.522000
     50 H14          2.4010     5.6010     1.6900 h1         1 XKF       0.091700
     51 H15          2.3850     7.7840    -0.0380 ho         1 XKF       0.524000
     52 H16          4.4280     7.8840     1.7240 h2         1 XKF       0.103700
     53 H17          4.1460     5.0610     6.7450 h1         1 XKF       0.060700
     54 H18          4.8470     5.6890     8.2420 h1         1 XKF       0.060700
     55 H19          6.3780     5.8930     6.2510 hc         1 XKF       0.049200
     56 H20          5.2230     6.9570     5.4700 hc         1 XKF       0.049200
     57 H21          7.9660     6.9790     8.2770 h4         1 XKF       0.213000
     58 H22          8.3160     9.4180     9.1110 hn         1 XKF       0.353000
     59 H23          4.0640     9.1890     5.7680 ha         1 XKF       0.102000
     60 H24          3.6640    11.6470     6.0580 ha         1 XKF       0.118000
     61 H25          5.1530    12.9910     7.5490 ha         1 XKF       0.115000
     62 H26          7.0590    11.8810     8.7520 ha         1 XKF       0.115000
     63 C24          1.4650     6.4070     4.3740 c3         1 XKF       0.165600
@<TRIPOS>BOND
     1     1     2 1   
     2     1     7 1   
     3     1    11 1   
     4     2     4 1   
     5     2     8 2   
     6     3     4 1   
     7     3    37 1   
     8     3    38 1   
     9     3    39 1   
    10     4    40 1   
    11     5     6 2   
    12     5     8 1   
    13     5    22 1   
    14     6     7 1   
    15     6    23 1   
    16     7    24 2   
    17     9    22 1   
    18     9    23 2   
    19     9    41 1   
    20    10    11 2   
    21    10    24 1   
    22    10    42 1   
    23    11    43 1   
    24    12    13 1   
    25    12    14 1   
    26    12    25 2   
    27    13    26 1   
    28    13    44 1   
    29    14    63 1   
    30    15    16 1   
    31    15    17 1   
    32    15    47 1   
    33    15    63 1   
    34    16    21 1   
    35    17    18 1   
    36    17    19 1   
    37    17    48 1   
    38    18    49 1   
    39    19    20 1   
    40    19    21 1   
    41    19    50 1   
    42    20    51 1   
    43    21    22 1   
    44    21    52 1   
    45    26    27 1   
    46    26    53 1   
    47    26    54 1   
    48    27    28 1   
    49    27    55 1   
    50    27    56 1   
    51    28    29 2   
    52    28    32 1   
    53    29    30 1   
    54    29    57 1   
    55    30    31 1   
    56    30    58 1   
    57    31    32 ar  
    58    31    36 ar  
    59    32    33 ar  
    60    33    34 ar  
    61    33    59 1   
    62    34    35 ar  
    63    34    60 1   
    64    35    36 ar  
    65    35    61 1   
    66    36    62 1   
    67    45    63 1   
    68    46    63 1   
@<TRIPOS>SUBSTRUCTURE
     1 XKF         1 TEMP              0 ****  ****    0 ROOT
