@<TRIPOS>MOLECULE
XKG
   57    60     1     0     0
SMALL
bcc


@<TRIPOS>ATOM
      1 C01        -30.3900     9.1870   -37.8460 c3         1 XKG      -0.041800
      2 C02        -29.1050     8.9920   -38.5990 ca         1 XKG      -0.088300
      3 C03        -28.9860     8.0040   -39.5710 ca         1 XKG      -0.122500
      4 C04        -27.7990     7.7900   -40.2620 ca         1 XKG      -0.086800
      5 C05        -26.6860     8.5900   -39.9730 ca         1 XKG       0.165400
      6 C06        -26.7820     9.5970   -39.0020 ca         1 XKG      -0.086800
      7 C07        -27.9890     9.7780   -38.3340 ca         1 XKG      -0.122500
      8 C08        -25.6000    10.4690   -38.6920 c3         1 XKG      -0.042800
      9 N09        -25.5180     8.4260   -40.7210 ne         1 XKG      -0.670100
     10 C10        -24.5190     7.7940   -40.2290 cd         1 XKG       0.588200
     11 C11        -24.4600     7.1830   -38.9330 cd         1 XKG      -0.384600
     12 C12        -23.3400     6.5710   -38.4890 cc         1 XKG       0.170400
     13 C13        -23.2480     5.9490   -37.1640 ca         1 XKG      -0.080800
     14 C14        -24.1380     6.3100   -36.1390 ca         1 XKG      -0.157000
     15 C15        -24.0950     5.6860   -34.9120 ca         1 XKG       0.108100
     16 C16        -23.1420     4.6640   -34.6840 ca         1 XKG       0.139100
     17 C17        -22.2570     4.3250   -35.6920 ca         1 XKG      -0.197000
     18 C18        -22.2990     4.9650   -36.9290 ca         1 XKG      -0.050300
     19 C19        -21.3360     4.6250   -38.0240 c6         1 XKG      -0.051100
     20 C20        -21.0050     5.8760   -38.8080 c6         1 XKG       0.105000
     21 N21        -22.2340     6.4940   -39.3050 n          1 XKG      -0.382000
     22 C22        -22.2110     7.0660   -40.5600 c          1 XKG       0.827500
     23 O23        -21.2100     7.0460   -41.2510 o          1 XKG      -0.640500
     24 N24        -23.3680     7.6580   -41.0020 n          1 XKG      -0.389300
     25 C25        -23.3280     8.2200   -42.3440 c3         1 XKG       0.090300
     26 O26        -23.1680     4.1100   -33.4670 os         1 XKG      -0.291900
     27 C27        -22.2440     3.0800   -33.1740 c3         1 XKG       0.120700
     28 O28        -24.8930     5.9720   -33.8690 os         1 XKG      -0.295900
     29 C29        -25.8610     6.9890   -34.0290 c3         1 XKG       0.119700
     30 C30        -27.7020     6.7160   -41.3060 c3         1 XKG      -0.042800
     31 H1         -30.4100     8.5860   -36.9340 hc         1 XKG       0.039033
     32 H2         -30.5260    10.2270   -37.5480 hc         1 XKG       0.039033
     33 H3         -31.2530     8.8940   -38.4430 hc         1 XKG       0.039033
     34 H4         -29.8440     7.3810   -39.8040 ha         1 XKG       0.126000
     35 H5         -28.0580    10.5600   -37.5860 ha         1 XKG       0.126000
     36 H6         -25.1830    10.9170   -39.5960 hc         1 XKG       0.042367
     37 H7         -25.8760    11.2750   -38.0120 hc         1 XKG       0.042367
     38 H8         -24.7930     9.9050   -38.2200 hc         1 XKG       0.042367
     39 H10        -25.3490     7.2120   -38.3230 ha         1 XKG       0.167000
     40 H12        -24.8510     7.1050   -36.3090 ha         1 XKG       0.148000
     41 H13        -21.5090     3.5590   -35.5340 ha         1 XKG       0.141000
     42 H14        -21.7600     3.8690   -38.6910 hc         1 XKG       0.066200
     43 H15        -20.4160     4.2080   -37.6150 hc         1 XKG       0.066200
     44 H16        -20.3740     5.6390   -39.6570 h1         1 XKG       0.071700
     45 H17        -20.4690     6.5900   -38.1770 h1         1 XKG       0.071700
     46 H18        -24.3360     8.4930   -42.6290 h1         1 XKG       0.058700
     47 H19        -22.6980     9.1080   -42.3780 h1         1 XKG       0.058700
     48 H20        -22.9420     7.4870   -43.0480 h1         1 XKG       0.058700
     49 H21        -22.4390     2.7760   -32.1490 h1         1 XKG       0.043700
     50 H22        -22.3760     2.2170   -33.8310 h1         1 XKG       0.043700
     51 H23        -21.2100     3.4270   -33.2490 h1         1 XKG       0.043700
     52 H24        -26.3890     7.0630   -33.0820 h1         1 XKG       0.043700
     53 H25        -25.4030     7.9560   -34.2550 h1         1 XKG       0.043700
     54 H26        -26.5810     6.7480   -34.8170 h1         1 XKG       0.043700
     55 H27        -26.9760     5.9480   -41.0290 hc         1 XKG       0.042367
     56 H28        -28.6630     6.2250   -41.4530 hc         1 XKG       0.042367
     57 H29        -27.3780     7.1210   -42.2670 hc         1 XKG       0.042367
@<TRIPOS>BOND
     1     1     2 1   
     2     1    31 1   
     3     1    32 1   
     4     1    33 1   
     5     2     3 ar  
     6     2     7 ar  
     7     3     4 ar  
     8     3    34 1   
     9     4     5 ar  
    10     4    30 1   
    11     5     6 ar  
    12     5     9 1   
    13     6     7 ar  
    14     6     8 1   
    15     7    35 1   
    16     8    36 1   
    17     8    37 1   
    18     8    38 1   
    19     9    10 2   
    20    10    11 1   
    21    10    24 1   
    22    11    12 2   
    23    11    39 1   
    24    12    13 1   
    25    12    21 1   
    26    13    14 ar  
    27    13    18 ar  
    28    14    15 ar  
    29    14    40 1   
    30    15    16 ar  
    31    15    28 1   
    32    16    17 ar  
    33    16    26 1   
    34    17    18 ar  
    35    17    41 1   
    36    18    19 1   
    37    19    20 1   
    38    19    42 1   
    39    19    43 1   
    40    20    21 1   
    41    20    44 1   
    42    20    45 1   
    43    21    22 1   
    44    22    23 2   
    45    22    24 1   
    46    24    25 1   
    47    25    46 1   
    48    25    47 1   
    49    25    48 1   
    50    26    27 1   
    51    27    49 1   
    52    27    50 1   
    53    27    51 1   
    54    28    29 1   
    55    29    52 1   
    56    29    53 1   
    57    29    54 1   
    58    30    55 1   
    59    30    56 1   
    60    30    57 1   
@<TRIPOS>SUBSTRUCTURE
     1 XKG         1 TEMP              0 ****  ****    0 ROOT
