@<TRIPOS>MOLECULE
XKG
   57    60     1     0     0
SMALL
No Charge or Current Charge


@<TRIPOS>ATOM
      1 C01        -29.9990    10.0260   -37.6310 c3         1 XKG      -0.041800
      2 C02        -28.8700     9.4640   -38.4820 ca         1 XKG      -0.088300
      3 C03        -28.9680     8.1720   -39.0230 ca         1 XKG      -0.104500
      4 C04        -27.9260     7.6400   -39.8070 ca         1 XKG      -0.086800
      5 C05        -26.7640     8.4130   -40.0490 ca         1 XKG       0.165400
      6 C06        -26.6660     9.7220   -39.5110 ca         1 XKG      -0.086800
      7 C07        -27.7200    10.2330   -38.7290 ca         1 XKG      -0.104500
      8 C08        -25.4390    10.6000   -39.7540 c3         1 XKG      -0.042800
      9 N09        -25.7080     7.8670   -40.8160 ne         1 XKG      -0.670100
     10 C10        -24.5270     7.5590   -40.3460 cd         1 XKG       0.588200
     11 C11        -24.5060     6.8140   -39.1270 cd         1 XKG      -0.434600
     12 C12        -23.3090     6.4500   -38.5620 cc         1 XKG       0.170400
     13 C13        -23.3170     5.7550   -37.2550 ca         1 XKG      -0.080800
     14 C14        -24.3870     5.8710   -36.3350 ca         1 XKG      -0.139000
     15 C15        -24.3600     5.1900   -35.0960 ca         1 XKG       0.108100
     16 C16        -23.2430     4.3920   -34.7600 ca         1 XKG       0.139100
     17 C17        -22.1600     4.3000   -35.6590 ca         1 XKG      -0.179000
     18 C18        -22.1940     4.9850   -36.8860 ca         1 XKG      -0.050300
     19 C19        -21.0080     4.8970   -37.8380 c6         1 XKG      -0.051100
     20 C20        -20.8270     6.1990   -38.6450 c6         1 XKG       0.105000
     21 N21        -22.1110     6.6850   -39.2170 n          1 XKG      -0.315000
     22 C22        -22.0900     7.4630   -40.3850 c          1 XKG       0.618000
     23 O23        -21.0290     7.7620   -40.9200 o          1 XKG      -0.565000
     24 N24        -23.3120     7.8800   -40.9320 n          1 XKG      -0.322300
     25 C25        -23.2630     8.6800   -42.1840 c3         1 XKG       0.090300
     26 O26        -23.2410     3.7310   -33.5420 os         1 XKG      -0.315100
     27 C27        -22.1470     2.9000   -33.1150 c3         1 XKG       0.143900
     28 O28        -25.4030     5.2840   -34.1870 os         1 XKG      -0.319100
     29 C29        -26.5880     6.0610   -34.4390 c3         1 XKG       0.142900
     30 C30        -28.0750     6.2320   -40.3820 c3         1 XKG      -0.042800
     31 H1         -29.8470     9.7840   -36.5730 hc         1 XKG       0.039033
     32 H2         -30.0620    11.1180   -37.7190 hc         1 XKG       0.039033
     33 H3         -30.9700     9.6160   -37.9330 hc         1 XKG       0.039033
     34 H4         -29.8590     7.5780   -38.8310 ha         1 XKG       0.108000
     35 H5         -27.6460    11.2330   -38.3080 ha         1 XKG       0.108000
     36 H6         -25.1980    10.6590   -40.8220 hc         1 XKG       0.042367
     37 H7         -25.5960    11.6270   -39.4020 hc         1 XKG       0.042367
     38 H8         -24.5610    10.2060   -39.2280 hc         1 XKG       0.042367
     39 H10        -25.4470     6.5490   -38.6710 ha         1 XKG       0.217000
     40 H12        -25.2290     6.5100   -36.5710 ha         1 XKG       0.130000
     41 H13        -21.2830     3.7050   -35.4190 ha         1 XKG       0.123000
     42 H14        -21.1710     4.0610   -38.5320 hc         1 XKG       0.066200
     43 H15        -20.0820     4.6730   -37.2920 hc         1 XKG       0.066200
     44 H16        -20.0880     6.0210   -39.4400 h1         1 XKG       0.071700
     45 H17        -20.4230     6.9800   -37.9850 h1         1 XKG       0.071700
     46 H18        -24.2650     8.9170   -42.5600 h1         1 XKG       0.058700
     47 H19        -22.7320     9.6220   -41.9970 h1         1 XKG       0.058700
     48 H20        -22.7290     8.1180   -42.9610 h1         1 XKG       0.058700
     49 H21        -22.3570     2.4760   -32.1250 h1         1 XKG       0.043700
     50 H22        -21.9910     2.0700   -33.8150 h1         1 XKG       0.043700
     51 H23        -21.2190     3.4820   -33.0440 h1         1 XKG       0.043700
     52 H24        -27.2790     5.9840   -33.5910 h1         1 XKG       0.043700
     53 H25        -26.3380     7.1200   -34.5790 h1         1 XKG       0.043700
     54 H26        -27.1080     5.6990   -35.3360 h1         1 XKG       0.043700
     55 H27        -27.3150     5.5550   -39.9730 hc         1 XKG       0.042367
     56 H28        -29.0560     5.7980   -40.1540 hc         1 XKG       0.042367
     57 H29        -27.9670     6.2380   -41.4730 hc         1 XKG       0.042367
@<TRIPOS>BOND
     1     1     2 1   
     2     1    31 1   
     3     1    32 1   
     4     1    33 1   
     5     2     3 ar  
     6     2     7 ar  
     7     3     4 ar  
     8     3    34 1   
     9     4     5 ar  
    10     4    30 1   
    11     5     6 ar  
    12     5     9 1   
    13     6     7 ar  
    14     6     8 1   
    15     7    35 1   
    16     8    36 1   
    17     8    37 1   
    18     8    38 1   
    19     9    10 2   
    20    10    11 1   
    21    10    24 1   
    22    11    12 2   
    23    11    39 1   
    24    12    13 1   
    25    12    21 1   
    26    13    14 ar  
    27    13    18 ar  
    28    14    15 ar  
    29    14    40 1   
    30    15    16 ar  
    31    15    28 1   
    32    16    17 ar  
    33    16    26 1   
    34    17    18 ar  
    35    17    41 1   
    36    18    19 1   
    37    19    20 1   
    38    19    42 1   
    39    19    43 1   
    40    20    21 1   
    41    20    44 1   
    42    20    45 1   
    43    21    22 1   
    44    22    23 2   
    45    22    24 1   
    46    24    25 1   
    47    25    46 1   
    48    25    47 1   
    49    25    48 1   
    50    26    27 1   
    51    27    49 1   
    52    27    50 1   
    53    27    51 1   
    54    28    29 1   
    55    29    52 1   
    56    29    53 1   
    57    29    54 1   
    58    30    55 1   
    59    30    56 1   
    60    30    57 1   
@<TRIPOS>SUBSTRUCTURE
     1 XKG         1 TEMP              0 ****  ****    0 ROOT
