@<TRIPOS>MOLECULE
XKI
   56    58     1     0     0
SMALL
No Charge or Current Charge


@<TRIPOS>ATOM
      1 C15         -7.4980   -13.0400    16.1410 c          1 XKI       0.704000
      2 C8          -1.6490   -13.3760    18.5830 ca         1 XKI      -0.200000
      3 C9          -1.9810   -13.2930    19.9430 ca         1 XKI      -0.102000
      4 C14         -6.5590   -13.0730    17.3590 c3         1 XKI      -0.201400
      5 C13         -5.1180   -13.4200    16.9040 c3         1 XKI      -0.020100
      6 C12         -4.0280   -13.3750    17.9890 ca         1 XKI      -0.071300
      7 C11         -4.3450   -13.2980    19.3660 ca         1 XKI      -0.091000
      8 C10         -3.3270   -13.2540    20.3330 ca         1 XKI      -0.156000
      9 C5          -1.0790   -13.5070    14.2220 c3         1 XKI      -0.072400
     10 C3          -0.4730    -9.8810    13.6220 ca         1 XKI      -0.101900
     11 C4          -1.4670   -12.1090    13.7030 c3         1 XKI       0.149600
     12 N2           0.2260    -8.0690    12.2020 nb         1 XKI      -0.323000
     13 C1          -0.6420    -7.3210    12.8920 ca         1 XKI       0.391900
     14 C21         -3.9130   -10.0880    17.6100 ca         1 XKI      -0.101000
     15 C20         -2.5340    -9.9600    17.8350 ca         1 XKI      -0.073000
     16 C18         -1.6530    -9.5870    16.7910 ca         1 XKI      -0.170300
     17 C22         -4.4420    -9.8570    16.3340 ca         1 XKI      -0.059000
     18 C16         -1.3380    -8.9860    14.3110 cp         1 XKI       0.218500
     19 C17         -2.1880    -9.3720    15.4800 cp         1 XKI      -0.100500
     20 C2           0.3050    -9.3510    12.5720 ca         1 XKI       0.396900
     21 C23         -3.5850    -9.5030    15.2820 ca         1 XKI      -0.093000
     22 C6          -1.0230   -13.5950    15.7590 c3         1 XKI       0.163600
     23 C7          -2.6660   -13.4160    17.6020 ca         1 XKI       0.127100
     24 F1           0.0870    -9.2690    18.4330 f          1 XKI      -0.118333
     25 F2           0.5760   -10.4730    16.7020 f          1 XKI      -0.118333
     26 F3           0.3770    -8.3170    16.5170 f          1 XKI      -0.118333
     27 N1          -0.7380    -6.0270    12.5080 nv         1 XKI      -1.051900
     28 N3           1.1840   -10.1070    11.8590 nv         1 XKI      -1.073900
     29 N4          -1.4300    -7.7020    13.9080 nb         1 XKI      -0.250000
     30 O1          -0.3810   -11.2110    13.9930 os         1 XKI      -0.357100
     31 O2          -2.3680   -13.4850    16.2530 os         1 XKI      -0.348100
     32 O3          -7.6270   -11.9840    15.5410 o          1 XKI      -0.742000
     33 O4          -8.0370   -14.0810    15.8010 o          1 XKI      -0.742000
     34 H1          -0.5980   -13.4040    18.3110 ha         1 XKI       0.106000
     35 H2          -1.1960   -13.2590    20.6960 ha         1 XKI       0.096000
     36 H3          -6.5010   -12.0800    17.8220 hc         1 XKI       0.019200
     37 H4          -6.8620   -13.8720    18.0460 hc         1 XKI       0.019200
     38 H5          -5.1270   -14.4180    16.4480 hc         1 XKI       0.059700
     39 H6          -4.8470   -12.7270    16.0970 hc         1 XKI       0.059700
     40 H7          -5.3770   -13.2700    19.7040 ha         1 XKI       0.124000
     41 H8          -3.5840   -13.1920    21.3880 ha         1 XKI       0.101000
     42 H9          -1.7980   -14.2450    13.8470 hc         1 XKI       0.054700
     43 H10         -0.1010   -13.7840    13.8100 hc         1 XKI       0.054700
     44 H11         -2.3990   -11.7790    14.1800 h1         1 XKI       0.048200
     45 H12         -1.6370   -12.1590    12.6190 h1         1 XKI       0.048200
     46 H13         -4.5720   -10.3710    18.4270 ha         1 XKI       0.128000
     47 H14         -2.1580   -10.1530    18.8380 ha         1 XKI       0.124000
     48 H15         -5.5110    -9.9590    16.1580 ha         1 XKI       0.164000
     49 H16         -4.0040    -9.3310    14.2930 ha         1 XKI       0.128000
     50 H17         -0.5850   -14.5570    16.0570 h1         1 XKI       0.039200
     51 H18         -0.3890   -12.7890    16.1470 h1         1 XKI       0.039200
     52 H19         -0.3250    -5.7540    11.6190 hn         1 XKI       0.481500
     53 H20         -1.5210    -5.4720    12.8440 hn         1 XKI       0.481500
     54 H21          1.8890    -9.6300    11.3030 hn         1 XKI       0.493000
     55 H22          1.4340   -11.0180    12.2370 hn         1 XKI       0.493000
     56 C19         -0.1530    -9.4120    17.1090 c3         1 XKI       0.341300
@<TRIPOS>BOND
     1     1     4 1   
     2     1    32 1   
     3     1    33 1   
     4     2     3 ar  
     5     2    23 ar  
     6     2    34 1   
     7     3     8 ar  
     8     3    35 1   
     9     4     5 1   
    10     4    36 1   
    11     4    37 1   
    12     5     6 1   
    13     5    38 1   
    14     5    39 1   
    15     6     7 ar  
    16     6    23 ar  
    17     7     8 ar  
    18     7    40 1   
    19     8    41 1   
    20     9    11 1   
    21     9    22 1   
    22     9    42 1   
    23     9    43 1   
    24    10    18 ar  
    25    10    20 ar  
    26    10    30 1   
    27    11    30 1   
    28    11    44 1   
    29    11    45 1   
    30    12    13 ar  
    31    12    20 ar  
    32    13    27 1   
    33    13    29 ar  
    34    14    15 ar  
    35    14    17 ar  
    36    14    46 1   
    37    15    16 ar  
    38    15    47 1   
    39    16    19 ar  
    40    16    56 1   
    41    17    21 ar  
    42    17    48 1   
    43    18    19 1   
    44    18    29 ar  
    45    19    21 ar  
    46    20    28 1   
    47    21    49 1   
    48    22    31 1   
    49    22    50 1   
    50    22    51 1   
    51    23    31 1   
    52    24    56 1   
    53    25    56 1   
    54    26    56 1   
    55    27    52 1   
    56    27    53 1   
    57    28    54 1   
    58    28    55 1   
@<TRIPOS>SUBSTRUCTURE
     1 XKI         1 TEMP              0 ****  ****    0 ROOT
