@<TRIPOS>MOLECULE
XKI
   56    58     1     0     0
SMALL
abcg2


@<TRIPOS>ATOM
      1 C15         -7.4050   -12.8370    15.9420 c          1 XKI       0.704000
      2 C8          -1.6930   -13.5140    18.5170 ca         1 XKI      -0.200000
      3 C9          -2.0680   -13.4490    19.8570 ca         1 XKI      -0.102000
      4 C14         -6.4770   -12.9700    17.1610 c3         1 XKI      -0.201400
      5 C13         -5.0500   -13.3160    16.7380 c3         1 XKI      -0.020100
      6 C12         -4.0340   -13.3770    17.8510 ca         1 XKI      -0.071300
      7 C11         -4.3740   -13.3170    19.1960 ca         1 XKI      -0.091000
      8 C10         -3.4070   -13.3510    20.2020 ca         1 XKI      -0.156000
      9 C5          -0.9840   -13.5210    14.2640 c3         1 XKI      -0.072400
     10 C3          -0.5720    -9.9150    13.7870 ca         1 XKI      -0.101900
     11 C4          -1.3710   -12.1520    13.7450 c3         1 XKI       0.149600
     12 N2          -0.0050    -8.2500    12.1630 nb         1 XKI      -0.323000
     13 C1          -0.8250    -7.4290    12.8370 ca         1 XKI       0.391900
     14 C21         -3.7160   -10.0190    17.8540 ca         1 XKI      -0.101000
     15 C20         -2.3550    -9.7990    18.0150 ca         1 XKI      -0.073000
     16 C18         -1.5640    -9.4450    16.9240 ca         1 XKI      -0.170300
     17 C22         -4.2930    -9.8780    16.6000 ca         1 XKI      -0.059000
     18 C16         -1.3570    -8.9790    14.4220 cp         1 XKI       0.218500
     19 C17         -2.1330    -9.3300    15.6480 cp         1 XKI      -0.100500
     20 C2           0.1250    -9.4940    12.6280 ca         1 XKI       0.396900
     21 C23         -3.5030    -9.5410    15.5080 ca         1 XKI      -0.093000
     22 C6          -1.0190   -13.6270    15.7760 c3         1 XKI       0.163600
     23 C7          -2.6670   -13.4750    17.5230 ca         1 XKI       0.127100
     24 F1           0.1760    -8.9810    18.4690 f          1 XKI      -0.118333
     25 F2           0.7140   -10.1480    16.7320 f          1 XKI      -0.118333
     26 F3           0.3070    -8.0310    16.5300 f          1 XKI      -0.118333
     27 N1          -0.9320    -6.1510    12.3660 nv         1 XKI      -1.051900
     28 N3           0.9200   -10.3590    11.9620 nv         1 XKI      -1.073900
     29 N4          -1.5080    -7.7280    13.9480 nb         1 XKI      -0.250000
     30 O1          -0.4060   -11.1990    14.2450 os         1 XKI      -0.357100
     31 O2          -2.3840   -13.5140    16.1910 os         1 XKI      -0.348100
     32 O3          -7.8840   -11.6970    15.6970 o          1 XKI      -0.742000
     33 O4          -7.6150   -13.8820    15.2700 o          1 XKI      -0.742000
     34 H1          -0.6470   -13.5880    18.2600 ha         1 XKI       0.106000
     35 H2          -1.3040   -13.4750    20.6240 ha         1 XKI       0.096000
     36 H3          -6.4850   -12.0360    17.7240 hc         1 XKI       0.019200
     37 H4          -6.8730   -13.7550    17.8110 hc         1 XKI       0.019200
     38 H5          -5.0570   -14.2710    16.2040 hc         1 XKI       0.059700
     39 H6          -4.7060   -12.5800    16.0060 hc         1 XKI       0.059700
     40 H7          -5.4150   -13.2310    19.4730 ha         1 XKI       0.124000
     41 H8          -3.7060   -13.2990    21.2410 ha         1 XKI       0.101000
     42 H9          -1.6590   -14.2630    13.8310 hc         1 XKI       0.054700
     43 H10          0.0260   -13.7630    13.9250 hc         1 XKI       0.054700
     44 H11         -2.3670   -11.8640    14.0910 h1         1 XKI       0.048200
     45 H12         -1.3630   -12.1370    12.6520 h1         1 XKI       0.048200
     46 H13         -4.3180   -10.3030    18.7060 ha         1 XKI       0.128000
     47 H14         -1.9090    -9.8960    18.9940 ha         1 XKI       0.124000
     48 H15         -5.3530   -10.0410    16.4640 ha         1 XKI       0.164000
     49 H16         -3.9480    -9.4430    14.5270 ha         1 XKI       0.128000
     50 H17         -0.6170   -14.5900    16.1050 h1         1 XKI       0.039200
     51 H18         -0.4270   -12.8300    16.2300 h1         1 XKI       0.039200
     52 H19         -0.6500    -5.9900    11.4120 hn         1 XKI       0.481500
     53 H20         -1.7140    -5.6090    12.6970 hn         1 XKI       0.481500
     54 H21          1.5230   -10.0010    11.2390 hn         1 XKI       0.493000
     55 H22          1.1740   -11.2250    12.4070 hn         1 XKI       0.493000
     56 C19         -0.1040    -9.1580    17.1590 c3         1 XKI       0.341300
@<TRIPOS>BOND
     1     1     4 1   
     2     1    32 1   
     3     1    33 1   
     4     2     3 ar  
     5     2    23 ar  
     6     2    34 1   
     7     3     8 ar  
     8     3    35 1   
     9     4     5 1   
    10     4    36 1   
    11     4    37 1   
    12     5     6 1   
    13     5    38 1   
    14     5    39 1   
    15     6     7 ar  
    16     6    23 ar  
    17     7     8 ar  
    18     7    40 1   
    19     8    41 1   
    20     9    11 1   
    21     9    22 1   
    22     9    42 1   
    23     9    43 1   
    24    10    18 ar  
    25    10    20 ar  
    26    10    30 1   
    27    11    30 1   
    28    11    44 1   
    29    11    45 1   
    30    12    13 ar  
    31    12    20 ar  
    32    13    27 1   
    33    13    29 ar  
    34    14    15 ar  
    35    14    17 ar  
    36    14    46 1   
    37    15    16 ar  
    38    15    47 1   
    39    16    19 ar  
    40    16    56 1   
    41    17    21 ar  
    42    17    48 1   
    43    18    19 1   
    44    18    29 ar  
    45    19    21 ar  
    46    20    28 1   
    47    21    49 1   
    48    22    31 1   
    49    22    50 1   
    50    22    51 1   
    51    23    31 1   
    52    24    56 1   
    53    25    56 1   
    54    26    56 1   
    55    27    52 1   
    56    27    53 1   
    57    28    54 1   
    58    28    55 1   
@<TRIPOS>SUBSTRUCTURE
     1 XKI         1 TEMP              0 ****  ****    0 ROOT
