@<TRIPOS>MOLECULE
XKJ
   60    60     1     0     0
SMALL
No Charge or Current Charge


@<TRIPOS>ATOM
      1 C6         -27.1800    49.6490    -4.4490 c3         1 XKJ       0.165600
      2 C3         -25.8180    46.0640    -5.4580 c6         1 XKJ       0.130300
      3 C24        -28.2610    47.6500   -10.3310 c3         1 XKJ      -0.101400
      4 C26        -30.1450    45.8570   -10.4240 c3         1 XKJ      -0.071400
      5 C28        -30.5630    44.1970   -12.3880 c3         1 XKJ      -0.072400
      6 C5         -27.0290    48.2890    -5.2120 c6         1 XKJ       0.155300
      7 C4         -25.9510    47.3440    -4.5800 c6         1 XKJ       0.109300
      8 C1         -26.6260    47.4200    -7.4420 c6         1 XKJ       0.399300
      9 C2         -25.5080    46.4450    -6.9330 c6         1 XKJ       0.152300
     10 C25        -29.1070    46.6090    -9.5570 c3         1 XKJ      -0.078400
     11 C27        -29.5260    44.9520   -11.5180 c3         1 XKJ      -0.075400
     12 C29        -31.4920    43.2080   -11.6340 c3         1 XKJ      -0.071400
     13 C30        -30.7760    42.0940   -10.8260 c3         1 XKJ      -0.071400
     14 C31        -29.8270    41.1750   -11.6400 c3         1 XKJ      -0.071400
     15 C32        -30.4770    40.4170   -12.8280 c3         1 XKJ      -0.072400
     16 C33        -31.6680    39.4950   -12.4680 c3         1 XKJ      -0.074400
     17 C34        -31.3190    38.3550   -11.4900 c3         1 XKJ      -0.088100
     18 O6         -25.9730    50.4380    -4.4260 oh         1 XKJ      -0.711000
     19 O5         -26.6750    48.5820    -6.5880 os         1 XKJ      -0.470000
     20 O4         -26.2750    46.9680    -3.2210 oh         1 XKJ      -0.729000
     21 O2         -25.3800    45.2420    -7.7280 oh         1 XKJ      -0.707000
     22 O1         -26.3640    47.8540    -8.7930 os         1 XKJ      -0.428000
     23 O3         -24.7980    45.2000    -4.9280 oh         1 XKJ      -0.664000
     24 H61        -27.9850    50.2140    -4.9370 h1         1 XKJ       0.030200
     25 H62        -27.5160    49.4400    -3.4250 h1         1 XKJ       0.030200
     26 H3         -26.7870    45.5420    -5.4380 h1         1 XKJ       0.046700
     27 H241       -27.6000    47.1360   -11.0380 hc         1 XKJ       0.049200
     28 H242       -28.9360    48.2710   -10.9320 hc         1 XKJ       0.049200
     29 H262       -30.8220    46.5840   -10.8910 hc         1 XKJ       0.035200
     30 H261       -30.7580    45.2430    -9.7540 hc         1 XKJ       0.035200
     31 H281       -31.1900    44.9340   -12.9040 hc         1 XKJ       0.035200
     32 H282       -30.0290    43.6540   -13.1760 hc         1 XKJ       0.035200
     33 H5         -28.0070    47.7850    -5.2020 h1         1 XKJ       0.043700
     34 H4         -24.9850    47.8720    -4.6050 h1         1 XKJ       0.078700
     35 H1         -27.5940    46.9030    -7.4000 h2         1 XKJ       0.028700
     36 H2         -24.5580    47.0010    -6.9490 h1         1 XKJ       0.070700
     37 H232       -26.9450    49.3480   -10.1200 h1         1 XKJ       0.044700
     38 H231       -28.0390    49.1400    -8.7450 h1         1 XKJ       0.044700
     39 H252       -29.6410    47.1180    -8.7440 hc         1 XKJ       0.042700
     40 H251       -28.4440    45.8690    -9.0920 hc         1 XKJ       0.042700
     41 H271       -28.8410    44.2330   -11.0540 hc         1 XKJ       0.041700
     42 H272       -28.9160    45.5680   -12.1900 hc         1 XKJ       0.041700
     43 H291       -32.1390    43.7720   -10.9520 hc         1 XKJ       0.034700
     44 H292       -32.1680    42.7430   -12.3610 hc         1 XKJ       0.034700
     45 H302       -31.5370    41.4760   -10.3340 hc         1 XKJ       0.036200
     46 H301       -30.2030    42.5540   -10.0120 hc         1 XKJ       0.036200
     47 H312       -29.3760    40.4470   -10.9550 hc         1 XKJ       0.037200
     48 H311       -28.9930    41.7740   -12.0230 hc         1 XKJ       0.037200
     49 H322       -30.8090    41.1440   -13.5790 hc         1 XKJ       0.035200
     50 H321       -29.7030    39.8130   -13.3170 hc         1 XKJ       0.035200
     51 H331       -32.4890    40.0920   -12.0520 hc         1 XKJ       0.035200
     52 H332       -32.0520    39.0510   -13.3950 hc         1 XKJ       0.035200
     53 H343       -32.1850    37.6970   -11.3490 hc         1 XKJ       0.030033
     54 H342       -30.4900    37.7500   -11.8780 hc         1 XKJ       0.030033
     55 H341       -31.0330    38.7510   -10.5090 hc         1 XKJ       0.030033
     56 HO6        -26.2160    51.3260    -4.0750 ho         1 XKJ       0.504000
     57 HO4        -26.0650    47.7430    -2.6460 ho         1 XKJ       0.515000
     58 HO2        -24.9090    44.6050    -7.1380 ho         1 XKJ       0.522000
     59 HO3        -24.9230    45.2370    -3.9510 ho         1 XKJ       0.463000
     60 C23        -27.4020    48.6000    -9.4590 c3         1 XKJ       0.166600
@<TRIPOS>BOND
     1     1     6 1   
     2     1    18 1   
     3     1    24 1   
     4     1    25 1   
     5     2     7 1   
     6     2     9 1   
     7     2    23 1   
     8     2    26 1   
     9     3    10 1   
    10     3    27 1   
    11     3    28 1   
    12     3    60 1   
    13     4    10 1   
    14     4    11 1   
    15     4    29 1   
    16     4    30 1   
    17     5    11 1   
    18     5    12 1   
    19     5    31 1   
    20     5    32 1   
    21     6     7 1   
    22     6    19 1   
    23     6    33 1   
    24     7    20 1   
    25     7    34 1   
    26     8     9 1   
    27     8    19 1   
    28     8    22 1   
    29     8    35 1   
    30     9    21 1   
    31     9    36 1   
    32    10    39 1   
    33    10    40 1   
    34    11    41 1   
    35    11    42 1   
    36    12    13 1   
    37    12    43 1   
    38    12    44 1   
    39    13    14 1   
    40    13    45 1   
    41    13    46 1   
    42    14    15 1   
    43    14    47 1   
    44    14    48 1   
    45    15    16 1   
    46    15    49 1   
    47    15    50 1   
    48    16    17 1   
    49    16    51 1   
    50    16    52 1   
    51    17    53 1   
    52    17    54 1   
    53    17    55 1   
    54    18    56 1   
    55    20    57 1   
    56    21    58 1   
    57    22    60 1   
    58    23    59 1   
    59    37    60 1   
    60    38    60 1   
@<TRIPOS>SUBSTRUCTURE
     1 XKJ         1 TEMP              0 ****  ****    0 ROOT
