@<TRIPOS>MOLECULE
XKJ
   60    60     1     0     0
SMALL
abcg2


@<TRIPOS>ATOM
      1 C6         -26.6870    49.5950    -4.4160 c3         1 XKJ       0.165600
      2 C3         -26.1390    45.9700    -5.6410 c6         1 XKJ       0.130300
      3 C24        -28.6130    47.7720   -10.2850 c3         1 XKJ      -0.101400
      4 C26        -30.2740    45.8570   -10.6090 c3         1 XKJ      -0.071400
      5 C28        -30.2540    44.1230   -12.4940 c3         1 XKJ      -0.072400
      6 C5         -26.8350    48.3140    -5.2060 c6         1 XKJ       0.155300
      7 C4         -25.8870    47.1910    -4.7660 c6         1 XKJ       0.109300
      8 C1         -26.9350    47.5130    -7.4130 c6         1 XKJ       0.399300
      9 C2         -26.0140    46.3340    -7.1160 c6         1 XKJ       0.152300
     10 C25        -29.4410    46.6750    -9.6240 c3         1 XKJ      -0.078400
     11 C27        -29.4390    44.9380   -11.4920 c3         1 XKJ      -0.075400
     12 C29        -31.3200    43.2160   -11.8800 c3         1 XKJ      -0.071400
     13 C30        -30.8080    42.2480   -10.8150 c3         1 XKJ      -0.071400
     14 C31        -29.6950    41.3100   -11.2780 c3         1 XKJ      -0.071400
     15 C32        -30.0410    40.4530   -12.4940 c3         1 XKJ      -0.072400
     16 C33        -31.2920    39.5900   -12.3410 c3         1 XKJ      -0.074400
     17 C34        -31.2170    38.5970   -11.1880 c3         1 XKJ      -0.088100
     18 O6         -25.3550    50.0420    -4.4750 oh         1 XKJ      -0.711000
     19 O5         -26.6100    48.5940    -6.5730 os         1 XKJ      -0.470000
     20 O4         -26.1150    46.8090    -3.4290 oh         1 XKJ      -0.729000
     21 O2         -26.3820    45.2690    -7.9510 oh         1 XKJ      -0.707000
     22 O1         -26.7520    47.9080    -8.7160 os         1 XKJ      -0.428000
     23 O3         -25.2240    44.9300    -5.3910 oh         1 XKJ      -0.664000
     24 H61        -27.3870    50.3360    -4.8250 h1         1 XKJ       0.030200
     25 H62        -27.0110    49.3980    -3.3860 h1         1 XKJ       0.030200
     26 H3         -27.1720    45.6290    -5.4610 h1         1 XKJ       0.046700
     27 H241       -27.9270    47.3480   -11.0240 hc         1 XKJ       0.049200
     28 H242       -29.2820    48.4380   -10.8390 hc         1 XKJ       0.049200
     29 H262       -30.8690    46.5310   -11.2360 hc         1 XKJ       0.035200
     30 H261       -30.9930    45.2580   -10.0430 hc         1 XKJ       0.035200
     31 H281       -30.7400    44.8060   -13.1980 hc         1 XKJ       0.035200
     32 H282       -29.5660    43.5200   -13.0950 hc         1 XKJ       0.035200
     33 H5         -27.8710    47.9690    -5.0540 h1         1 XKJ       0.043700
     34 H4         -24.8500    47.5190    -4.9140 h1         1 XKJ       0.078700
     35 H1         -27.9810    47.2110    -7.2220 h2         1 XKJ       0.028700
     36 H2         -24.9770    46.6560    -7.3090 h1         1 XKJ       0.070700
     37 H232       -27.3720    49.4720    -9.8530 h1         1 XKJ       0.044700
     38 H231       -28.4830    49.0580    -8.5560 h1         1 XKJ       0.044700
     39 H252       -30.1050    47.1370    -8.8860 hc         1 XKJ       0.042700
     40 H251       -28.7900    45.9940    -9.0690 hc         1 XKJ       0.042700
     41 H271       -28.8570    44.2660   -10.8520 hc         1 XKJ       0.041700
     42 H272       -28.7030    45.5270   -12.0480 hc         1 XKJ       0.041700
     43 H291       -32.1150    43.8260   -11.4410 hc         1 XKJ       0.034700
     44 H292       -31.8010    42.6530   -12.6860 hc         1 XKJ       0.034700
     45 H302       -31.6520    41.6600   -10.4450 hc         1 XKJ       0.036200
     46 H301       -30.4490    42.8140    -9.9500 hc         1 XKJ       0.036200
     47 H312       -29.4110    40.6660   -10.4410 hc         1 XKJ       0.037200
     48 H311       -28.7980    41.8940   -11.5090 hc         1 XKJ       0.037200
     49 H322       -30.1600    41.0950   -13.3710 hc         1 XKJ       0.035200
     50 H321       -29.1890    39.8020   -12.7150 hc         1 XKJ       0.035200
     51 H331       -32.1720    40.2270   -12.2190 hc         1 XKJ       0.035200
     52 H332       -31.4510    39.0430   -13.2750 hc         1 XKJ       0.035200
     53 H343       -32.0980    37.9550   -11.1630 hc         1 XKJ       0.030033
     54 H342       -30.3400    37.9530   -11.2800 hc         1 XKJ       0.030033
     55 H341       -31.1550    39.1000   -10.2220 hc         1 XKJ       0.030033
     56 HO6        -25.2720    50.8190    -3.9150 ho         1 XKJ       0.504000
     57 HO4        -25.6120    47.3880    -2.8490 ho         1 XKJ       0.515000
     58 HO2        -25.8820    44.4910    -7.6830 ho         1 XKJ       0.522000
     59 HO3        -25.3820    44.5940    -4.5030 ho         1 XKJ       0.463000
     60 C23        -27.8200    48.6320    -9.3170 c3         1 XKJ       0.166600
@<TRIPOS>BOND
     1     1     6 1   
     2     1    18 1   
     3     1    24 1   
     4     1    25 1   
     5     2     7 1   
     6     2     9 1   
     7     2    23 1   
     8     2    26 1   
     9     3    10 1   
    10     3    27 1   
    11     3    28 1   
    12     3    60 1   
    13     4    10 1   
    14     4    11 1   
    15     4    29 1   
    16     4    30 1   
    17     5    11 1   
    18     5    12 1   
    19     5    31 1   
    20     5    32 1   
    21     6     7 1   
    22     6    19 1   
    23     6    33 1   
    24     7    20 1   
    25     7    34 1   
    26     8     9 1   
    27     8    19 1   
    28     8    22 1   
    29     8    35 1   
    30     9    21 1   
    31     9    36 1   
    32    10    39 1   
    33    10    40 1   
    34    11    41 1   
    35    11    42 1   
    36    12    13 1   
    37    12    43 1   
    38    12    44 1   
    39    13    14 1   
    40    13    45 1   
    41    13    46 1   
    42    14    15 1   
    43    14    47 1   
    44    14    48 1   
    45    15    16 1   
    46    15    49 1   
    47    15    50 1   
    48    16    17 1   
    49    16    51 1   
    50    16    52 1   
    51    17    53 1   
    52    17    54 1   
    53    17    55 1   
    54    18    56 1   
    55    20    57 1   
    56    21    58 1   
    57    22    60 1   
    58    23    59 1   
    59    37    60 1   
    60    38    60 1   
@<TRIPOS>SUBSTRUCTURE
     1 XKJ         1 TEMP              0 ****  ****    0 ROOT
