@<TRIPOS>MOLECULE
XKK
   63    68     1     0     0
SMALL
No Charge or Current Charge


@<TRIPOS>ATOM
      1 C2           9.0470     6.2280     0.0300 cc         1 XKK       0.803400
      2 C4           7.5590     5.8810     1.7410 cd         1 XKK       0.369500
      3 C5           6.4800     5.9470     0.9100 cc         1 XKK       0.017400
      4 C6           6.6900     6.1690    -0.4710 cc         1 XKK       0.027000
      5 N3           8.8890     6.0130     1.3320 nd         1 XKK      -0.760000
      6 O2           3.5270     6.4690     8.0630 o          1 XKK      -0.533000
      7 O5           5.0770     5.5740     6.2940 os         1 XKK      -0.588700
      8 C19          7.3670     4.6890     6.4020 c5         1 XKK       0.125300
      9 O4           7.2980     4.4010     4.9770 os         1 XKK      -0.445000
     10 C3           8.1350     6.0530     6.5300 c5         1 XKK       0.106300
     11 O3           9.5670     5.8870     6.5620 oh         1 XKK      -0.685000
     12 C18          7.7080     6.7490     5.2110 c5         1 XKK       0.136300
     13 O1           8.6000     7.8290     4.9050 oh         1 XKK      -0.668000
     14 N9           7.0500     5.6620     2.9930 na         1 XKK      -0.269300
     15 C8           5.6640     5.6060     2.8440 cd         1 XKK       0.378700
     16 N7           5.3010     5.7810     1.5720 nc         1 XKK      -0.504100
     17 N6           5.8810     6.2910    -1.5070 nd         1 XKK      -0.265600
     18 N1           7.9700     6.2950    -0.8790 na         1 XKK      -0.144400
     19 C9           6.7150     6.5220    -2.6020 cd         1 XKK      -0.029400
     20 C10          8.0490     6.5400    -2.2310 cc         1 XKK      -0.274100
     21 N2          10.3100     6.3270    -0.3830 nv         1 XKK      -1.060900
     22 S1           3.5350     5.6780     6.8330 s6         1 XKK       1.447500
     23 O6           2.9220     4.3490     6.7860 o          1 XKK      -0.533000
     24 N4           2.9090     6.5780     5.5890 ns         1 XKK      -0.640300
     25 C7           3.2630     7.7950     5.1020 c          1 XKK       0.633100
     26 C11          4.3190     8.6740     5.7980 c3         1 XKK      -0.166400
     27 C12          3.7180    10.0150     6.2770 c3         1 XKK       0.022800
     28 C13          2.6440     9.8500     7.3190 cc         1 XKK      -0.163400
     29 C14          2.8370     9.6170     8.7220 ca         1 XKK      -0.095800
     30 C15          1.6030     9.5220     9.3020 ca         1 XKK      -0.048200
     31 N16          0.6050     9.6800     8.3590 na         1 XKK      -0.223700
     32 C17          1.2660     9.8860     7.1230 cd         1 XKK      -0.129100
     33 O24          2.7440     8.1650     4.0630 o          1 XKK      -0.544100
     34 C25          4.0180     9.4940     9.4680 ca         1 XKK      -0.065000
     35 C26          3.9020     9.2640    10.8550 ca         1 XKK      -0.136000
     36 C27          2.6260     9.1640    11.4590 ca         1 XKK      -0.092000
     37 C28          1.4570     9.2950    10.6780 ca         1 XKK      -0.126000
     38 C16          7.8010     5.5350     4.2320 c5         1 XKK       0.312300
     39 H1           5.5540     3.6480     6.9770 h1         1 XKK       0.066700
     40 H2           6.0080     4.9660     8.0780 h1         1 XKK       0.066700
     41 H3           7.9340     3.8860     6.8920 h1         1 XKK       0.098700
     42 H4           7.7960     6.6230     7.4060 h1         1 XKK       0.052700
     43 H5           9.8090     5.5250     7.4480 ho         1 XKK       0.511000
     44 H6           6.6780     7.1200     5.2670 h1         1 XKK       0.043700
     45 H7           9.4410     7.5700     5.3570 ho         1 XKK       0.517000
     46 H8           5.0020     5.4390     3.6850 h5         1 XKK       0.064800
     47 H9           6.3040     6.6700    -3.6000 h4         1 XKK       0.228000
     48 H10          8.9630     6.7050    -2.7940 h4         1 XKK       0.226000
     49 H11         10.9720     6.0090     0.3130 hn         1 XKK       0.494000
     50 H12         10.4860     6.0090    -1.3260 hn         1 XKK       0.494000
     51 H13          2.2540     6.0310     5.0620 hn         1 XKK       0.346500
     52 H14          4.8000     8.1800     6.6450 hc         1 XKK       0.082200
     53 H15          5.0900     8.9100     5.0570 hc         1 XKK       0.082200
     54 H16          4.5240    10.6400     6.6810 hc         1 XKK       0.052200
     55 H17          3.3160    10.5620     5.4150 hc         1 XKK       0.052200
     56 H18         -0.3970     9.6560     8.5200 hn         1 XKK       0.352000
     57 H19          0.7130    10.0400     6.1990 h4         1 XKK       0.220000
     58 H20          4.9930     9.5690     8.9940 ha         1 XKK       0.111000
     59 H21          4.7980     9.1610    11.4630 ha         1 XKK       0.112000
     60 H22          2.5450     8.9870    12.5290 ha         1 XKK       0.111000
     61 H23          0.4720     9.2200    11.1330 ha         1 XKK       0.113000
     62 H24          8.8500     5.3560     3.9590 h2         1 XKK       0.127700
     63 C20          5.9370     4.6770     7.0200 c3         1 XKK       0.187600
@<TRIPOS>BOND
     1     1     5 2   
     2     1    18 1   
     3     1    21 1   
     4     2     3 2   
     5     2     5 1   
     6     2    14 1   
     7     3     4 1   
     8     3    16 1   
     9     4    17 2   
    10     4    18 1   
    11     6    22 2   
    12     7    22 1   
    13     7    63 1   
    14     8     9 1   
    15     8    10 1   
    16     8    41 1   
    17     8    63 1   
    18     9    38 1   
    19    10    11 1   
    20    10    12 1   
    21    10    42 1   
    22    11    43 1   
    23    12    13 1   
    24    12    38 1   
    25    12    44 1   
    26    13    45 1   
    27    14    15 1   
    28    14    38 1   
    29    15    16 2   
    30    15    46 1   
    31    17    19 1   
    32    18    20 1   
    33    19    20 2   
    34    19    47 1   
    35    20    48 1   
    36    21    49 1   
    37    21    50 1   
    38    22    23 2   
    39    22    24 1   
    40    24    25 1   
    41    24    51 1   
    42    25    26 1   
    43    25    33 2   
    44    26    27 1   
    45    26    52 1   
    46    26    53 1   
    47    27    28 1   
    48    27    54 1   
    49    27    55 1   
    50    28    29 1   
    51    28    32 2   
    52    29    30 ar  
    53    29    34 ar  
    54    30    31 1   
    55    30    37 ar  
    56    31    32 1   
    57    31    56 1   
    58    32    57 1   
    59    34    35 ar  
    60    34    58 1   
    61    35    36 ar  
    62    35    59 1   
    63    36    37 ar  
    64    36    60 1   
    65    37    61 1   
    66    38    62 1   
    67    39    63 1   
    68    40    63 1   
@<TRIPOS>SUBSTRUCTURE
     1 XKK         1 TEMP              0 ****  ****    0 ROOT
