@<TRIPOS>MOLECULE
XKK
   63    68     1     0     0
SMALL
abcg2


@<TRIPOS>ATOM
      1 C2           9.6650     6.1710    -0.6980 cc         1 XKK       0.803400
      2 C4           8.1240     5.3770     0.7170 cd         1 XKK       0.369500
      3 C5           7.4650     4.5860    -0.2020 cc         1 XKK       0.017400
      4 C6           7.9700     4.6110    -1.5200 cc         1 XKK       0.027000
      5 N3           9.2010     6.1510     0.5180 nd         1 XKK      -0.760000
      6 O2           3.8320     5.0510     8.7680 o          1 XKK      -0.533000
      7 O5           5.3560     5.0790     6.9310 os         1 XKK      -0.588700
      8 C19          7.0660     5.4970     5.3360 c5         1 XKK       0.125300
      9 O4           7.6840     4.9290     4.1830 os         1 XKK      -0.445000
     10 C3           6.8650     6.9860     5.0260 c5         1 XKK       0.106300
     11 O3           8.0050     7.7450     5.3160 oh         1 XKK      -0.685000
     12 C18          6.7040     6.9360     3.5060 c5         1 XKK       0.136300
     13 O1           6.9740     8.1050     2.8050 oh         1 XKK      -0.668000
     14 N9           7.4490     5.1990     1.8920 na         1 XKK      -0.269300
     15 C8           6.4300     4.3280     1.6210 cd         1 XKK       0.378700
     16 N7           6.4130     3.9360     0.3800 nc         1 XKK      -0.504100
     17 N6           7.6120     4.0340    -2.6360 nd         1 XKK      -0.265600
     18 N1           9.0760     5.4390    -1.7090 na         1 XKK      -0.144400
     19 C9           8.4890     4.4910    -3.5800 cd         1 XKK      -0.029400
     20 C10          9.3960     5.3540    -3.0540 cc         1 XKK      -0.274100
     21 N2          10.7080     6.9560    -1.0260 nv         1 XKK      -1.060900
     22 S1           3.8270     4.9200     7.3380 s6         1 XKK       1.447500
     23 O6           3.2550     3.7720     6.6840 o          1 XKK      -0.533000
     24 N4           3.0820     6.2250     6.6400 ns         1 XKK      -0.640300
     25 C7           3.1930     7.5900     6.9150 c          1 XKK       0.633100
     26 C11          4.1120     8.0170     8.0260 c3         1 XKK      -0.166400
     27 C12          4.1600     9.5310     8.2190 c3         1 XKK       0.022800
     28 C13          2.9510    10.0900     8.8930 cc         1 XKK      -0.163400
     29 C14          2.6490    10.0010    10.2920 ca         1 XKK      -0.095800
     30 C15          1.4170    10.6620    10.4960 ca         1 XKK      -0.048200
     31 N16          0.9990    11.1220     9.2830 na         1 XKK      -0.223700
     32 C17          1.9150    10.7780     8.3280 cd         1 XKK      -0.129100
     33 O24          2.5570     8.3490     6.2270 o          1 XKK      -0.544100
     34 C25          3.3060     9.4340    11.3900 ca         1 XKK      -0.065000
     35 C26          2.7300     9.5360    12.6420 ca         1 XKK      -0.136000
     36 C27          1.5040    10.1980    12.8220 ca         1 XKK      -0.092000
     37 C28          0.8330    10.7680    11.7580 ca         1 XKK      -0.126000
     38 C16          7.7270     5.8630     3.1390 c5         1 XKK       0.312300
     39 H1           5.0030     4.9980     4.8620 h1         1 XKK       0.066700
     40 H2           5.9480     3.6600     5.5440 h1         1 XKK       0.066700
     41 H3           7.7320     5.3630     6.1950 h1         1 XKK       0.098700
     42 H4           5.9720     7.3880     5.5180 h1         1 XKK       0.052700
     43 H5           8.1360     7.7530     6.2700 ho         1 XKK       0.511000
     44 H6           5.6970     6.5530     3.2850 h1         1 XKK       0.043700
     45 H7           6.2160     8.6930     2.8750 ho         1 XKK       0.517000
     46 H8           5.7350     4.0090     2.3830 h5         1 XKK       0.064800
     47 H9           8.4220     4.1740    -4.6090 h4         1 XKK       0.228000
     48 H10         10.2050     5.8980    -3.5100 h4         1 XKK       0.226000
     49 H11         11.1960     7.3760    -0.2510 hn         1 XKK       0.494000
     50 H12         11.2940     6.7220    -1.8090 hn         1 XKK       0.494000
     51 H13          2.4850     5.9880     5.8530 hn         1 XKK       0.346500
     52 H14          3.8080     7.5270     8.9530 hc         1 XKK       0.082200
     53 H15          5.1160     7.6420     7.8080 hc         1 XKK       0.082200
     54 H16          5.0410     9.7470     8.8280 hc         1 XKK       0.052200
     55 H17          4.3290    10.0260     7.2610 hc         1 XKK       0.052200
     56 H18          0.1500    11.6350     9.1110 hn         1 XKK       0.352000
     57 H19          1.7610    11.0530     7.2970 h4         1 XKK       0.220000
     58 H20          4.2540     8.9240    11.2640 ha         1 XKK       0.111000
     59 H21          3.2290     9.1020    13.4990 ha         1 XKK       0.112000
     60 H22          1.0780    10.2640    13.8150 ha         1 XKK       0.111000
     61 H23         -0.1110    11.2800    11.8990 ha         1 XKK       0.113000
     62 H24          8.7230     6.3090     3.0380 h2         1 XKK       0.127700
     63 C20          5.7730     4.7360     5.5930 c3         1 XKK       0.187600
@<TRIPOS>BOND
     1     1     5 2   
     2     1    18 1   
     3     1    21 1   
     4     2     3 2   
     5     2     5 1   
     6     2    14 1   
     7     3     4 1   
     8     3    16 1   
     9     4    17 2   
    10     4    18 1   
    11     6    22 2   
    12     7    22 1   
    13     7    63 1   
    14     8     9 1   
    15     8    10 1   
    16     8    41 1   
    17     8    63 1   
    18     9    38 1   
    19    10    11 1   
    20    10    12 1   
    21    10    42 1   
    22    11    43 1   
    23    12    13 1   
    24    12    38 1   
    25    12    44 1   
    26    13    45 1   
    27    14    15 1   
    28    14    38 1   
    29    15    16 2   
    30    15    46 1   
    31    17    19 1   
    32    18    20 1   
    33    19    20 2   
    34    19    47 1   
    35    20    48 1   
    36    21    49 1   
    37    21    50 1   
    38    22    23 2   
    39    22    24 1   
    40    24    25 1   
    41    24    51 1   
    42    25    26 1   
    43    25    33 2   
    44    26    27 1   
    45    26    52 1   
    46    26    53 1   
    47    27    28 1   
    48    27    54 1   
    49    27    55 1   
    50    28    29 1   
    51    28    32 2   
    52    29    30 ar  
    53    29    34 ar  
    54    30    31 1   
    55    30    37 ar  
    56    31    32 1   
    57    31    56 1   
    58    32    57 1   
    59    34    35 ar  
    60    34    58 1   
    61    35    36 ar  
    62    35    59 1   
    63    36    37 ar  
    64    36    60 1   
    65    37    61 1   
    66    38    62 1   
    67    39    63 1   
    68    40    63 1   
@<TRIPOS>SUBSTRUCTURE
     1 XKK         1 TEMP              0 ****  ****    0 ROOT
