@<TRIPOS>MOLECULE
XKL
   43    45     1     0     0
SMALL
No Charge or Current Charge


@<TRIPOS>ATOM
      1 O28          0.1820     2.7940    10.5830 o          1 XKL      -0.594100
      2 C24          0.6170     3.7900    11.1520 c          1 XKL       0.519600
      3 N25         -0.2260     4.7810    11.6240 ns         1 XKL      -0.491900
      4 C26         -1.6890     4.7540    11.5400 c3         1 XKL       0.105000
      5 C27         -2.3130     3.8440    12.6120 c3         1 XKL      -0.116100
      6 C22          2.0720     4.0590    11.4000 cc         1 XKL       0.230500
      7 N21          2.5670     5.1280    12.0150 nd         1 XKL      -0.357300
      8 O20          3.9910     4.9030    12.0030 os         1 XKL      -0.061700
      9 C23          3.0710     3.1540    10.9900 cc         1 XKL      -0.187000
     10 C19          4.2540     3.7180    11.3570 cd         1 XKL       0.258500
     11 C5           5.6570     3.2110    11.3050 ca         1 XKL      -0.220500
     12 C4           6.7720     4.0680    11.5080 ca         1 XKL       0.222100
     13 O7           6.6210     5.4050    11.7230 oh         1 XKL      -0.507100
     14 C3           8.0820     3.5710    11.4550 ca         1 XKL      -0.252000
     15 C2           8.3160     2.2210    11.2050 ca         1 XKL       0.212100
     16 O8           9.5930     1.7560    11.1650 oh         1 XKL      -0.523100
     17 C6           5.9260     1.8440    11.0370 ca         1 XKL       0.195100
     18 C1           7.2430     1.3570    10.9990 ca         1 XKL      -0.263000
     19 O9           4.9020     0.9420    10.8750 os         1 XKL      -0.246200
     20 C10          4.8410     0.0650     9.8150 ca         1 XKL       0.177100
     21 C15          5.3820     0.3930     8.5590 ca         1 XKL      -0.171500
     22 C14          5.2900    -0.5160     7.4900 ca         1 XKL      -0.007500
     23 C13          4.6450    -1.7620     7.6690 ca         1 XKL      -0.205200
     24 N16          4.5450    -2.7330     6.5340 no         1 XKL       0.680200
     25 O18          5.0410    -2.4150     5.4460 o          1 XKL      -0.398500
     26 O17          3.9710    -3.8110     6.7350 o          1 XKL      -0.398500
     27 C12          4.0920    -2.0790     8.9330 ca         1 XKL      -0.007500
     28 C11          4.1900    -1.1630     9.9950 ca         1 XKL      -0.171500
     29 H25          0.2210     5.5720    12.0780 hn         1 XKL       0.332500
     30 H261        -2.0660     5.7780    11.6660 h1         1 XKL       0.057200
     31 H262        -1.9870     4.4070    10.5410 h1         1 XKL       0.057200
     32 H271        -3.4060     3.8600    12.5330 hc         1 XKL       0.044367
     33 H272        -1.9760     2.8080    12.4900 hc         1 XKL       0.044367
     34 H273        -2.0350     4.1850    13.6170 hc         1 XKL       0.044367
     35 H23          2.8890     2.2180    10.4800 ha         1 XKL       0.167000
     36 H7           7.5100     5.8030    11.8260 ho         1 XKL       0.476000
     37 H3           8.9310     4.2320    11.6070 ha         1 XKL       0.142000
     38 H8           9.5620     0.7930    10.9810 ho         1 XKL       0.476000
     39 H1           7.4200     0.3000    10.8170 ha         1 XKL       0.140000
     40 H15          5.8700     1.3520     8.4030 ha         1 XKL       0.143500
     41 H11          3.7620    -1.4080    10.9640 ha         1 XKL       0.143500
     42 H14          5.7190    -0.2410     6.5270 ha         1 XKL       0.156000
     43 H12          3.5860    -3.0280     9.1000 ha         1 XKL       0.156000
@<TRIPOS>BOND
     1     1     2 2   
     2     2     3 1   
     3     2     6 1   
     4     3     4 1   
     5     3    29 1   
     6     4     5 1   
     7     4    30 1   
     8     4    31 1   
     9     5    32 1   
    10     5    33 1   
    11     5    34 1   
    12     6     7 2   
    13     6     9 1   
    14     7     8 1   
    15     8    10 1   
    16     9    10 2   
    17     9    35 1   
    18    10    11 1   
    19    11    12 ar  
    20    11    17 ar  
    21    12    13 1   
    22    12    14 ar  
    23    13    36 1   
    24    14    15 ar  
    25    14    37 1   
    26    15    16 1   
    27    15    18 ar  
    28    16    38 1   
    29    17    18 ar  
    30    17    19 1   
    31    18    39 1   
    32    19    20 1   
    33    20    21 ar  
    34    20    28 ar  
    35    21    22 ar  
    36    21    40 1   
    37    22    23 ar  
    38    22    42 1   
    39    23    24 1   
    40    23    27 ar  
    41    24    25 1   
    42    24    26 1   
    43    27    28 ar  
    44    27    43 1   
    45    28    41 1   
@<TRIPOS>SUBSTRUCTURE
     1 XKL         1 TEMP              0 ****  ****    0 ROOT
