@<TRIPOS>MOLECULE
XKL
   43    45     1     0     0
SMALL
abcg2


@<TRIPOS>ATOM
      1 O28          0.4250     2.7870    10.0650 o          1 XKL      -0.594100
      2 C24          0.7780     3.6260    10.8940 c          1 XKL       0.519600
      3 N25         -0.0440     4.4970    11.4930 ns         1 XKL      -0.491900
      4 C26         -1.4850     4.5130    11.2760 c3         1 XKL       0.105000
      5 C27         -2.2340     3.5860    12.2280 c3         1 XKL      -0.116100
      6 C22          2.2190     3.7240    11.2870 cc         1 XKL       0.230500
      7 N21          2.6270     4.5370    12.2330 nd         1 XKL      -0.357300
      8 O20          3.9960     4.3540    12.3200 os         1 XKL      -0.061700
      9 C23          3.2920     2.9940    10.7250 cc         1 XKL      -0.187000
     10 C19          4.3900     3.4280    11.4060 cd         1 XKL       0.258500
     11 C5           5.8040     3.0820    11.3490 ca         1 XKL      -0.220500
     12 C4           6.8220     4.0600    11.3810 ca         1 XKL       0.222100
     13 O7           6.4440     5.3570    11.4560 oh         1 XKL      -0.507100
     14 C3           8.1610     3.7020    11.3090 ca         1 XKL      -0.252000
     15 C2           8.5180     2.3620    11.2030 ca         1 XKL       0.212100
     16 O8           9.8400     2.0750    11.1380 oh         1 XKL      -0.523100
     17 C6           6.2140     1.7490    11.2360 ca         1 XKL       0.195100
     18 C1           7.5400     1.3700    11.1690 ca         1 XKL      -0.263000
     19 O9           5.2470     0.7570    11.2740 os         1 XKL      -0.246200
     20 C10          4.9330     0.0720    10.1420 ca         1 XKL       0.177100
     21 C15          5.3660     0.4560     8.8720 ca         1 XKL      -0.171500
     22 C14          4.9710    -0.2810     7.7700 ca         1 XKL      -0.007500
     23 C13          4.1550    -1.3920     7.9480 ca         1 XKL      -0.205200
     24 N16          3.7510    -2.1690     6.7880 no         1 XKL       0.680200
     25 O18          4.1230    -1.7990     5.6780 o          1 XKL      -0.398500
     26 O17          3.0560    -3.1650     6.9650 o          1 XKL      -0.398500
     27 C12          3.7150    -1.7770     9.2130 ca         1 XKL      -0.007500
     28 C11          4.1040    -1.0400    10.3120 ca         1 XKL      -0.171500
     29 H25          0.3490     5.1220    12.1810 hn         1 XKL       0.332500
     30 H261        -1.8200     5.5430    11.4020 h1         1 XKL       0.057200
     31 H262        -1.6680     4.2250    10.2420 h1         1 XKL       0.057200
     32 H271        -3.3070     3.6410    12.0350 hc         1 XKL       0.044367
     33 H272        -1.9120     2.5520    12.0920 hc         1 XKL       0.044367
     34 H273        -2.0560     3.8710    13.2660 hc         1 XKL       0.044367
     35 H23          3.2420     2.2780     9.9260 ha         1 XKL       0.167000
     36 H7           7.2210     5.9320    11.4300 ho         1 XKL       0.476000
     37 H3           8.9300     4.4640    11.3290 ha         1 XKL       0.142000
     38 H8           9.9750     1.1190    11.0680 ho         1 XKL       0.476000
     39 H1           7.8040     0.3230    11.0960 ha         1 XKL       0.140000
     40 H15          5.9990     1.3220     8.7440 ha         1 XKL       0.143500
     41 H11          3.7790    -1.3100    11.3070 ha         1 XKL       0.143500
     42 H14          5.2930     0.0020     6.7790 ha         1 XKL       0.156000
     43 H12          3.0780    -2.6410     9.3260 ha         1 XKL       0.156000
@<TRIPOS>BOND
     1     1     2 2   
     2     2     3 1   
     3     2     6 1   
     4     3     4 1   
     5     3    29 1   
     6     4     5 1   
     7     4    30 1   
     8     4    31 1   
     9     5    32 1   
    10     5    33 1   
    11     5    34 1   
    12     6     7 2   
    13     6     9 1   
    14     7     8 1   
    15     8    10 1   
    16     9    10 2   
    17     9    35 1   
    18    10    11 1   
    19    11    12 ar  
    20    11    17 ar  
    21    12    13 1   
    22    12    14 ar  
    23    13    36 1   
    24    14    15 ar  
    25    14    37 1   
    26    15    16 1   
    27    15    18 ar  
    28    16    38 1   
    29    17    18 ar  
    30    17    19 1   
    31    18    39 1   
    32    19    20 1   
    33    20    21 ar  
    34    20    28 ar  
    35    21    22 ar  
    36    21    40 1   
    37    22    23 ar  
    38    22    42 1   
    39    23    24 1   
    40    23    27 ar  
    41    24    25 1   
    42    24    26 1   
    43    27    28 ar  
    44    27    43 1   
    45    28    41 1   
@<TRIPOS>SUBSTRUCTURE
     1 XKL         1 TEMP              0 ****  ****    0 ROOT
