@<TRIPOS>MOLECULE
XKN
   69    73     1     0     0
SMALL
No Charge or Current Charge


@<TRIPOS>ATOM
      1 C1          30.1640     8.6380    26.6250 c1         1 XKN      -0.198000
      2 C10         25.6460     3.3530    25.8880 c6         1 XKN       0.069700
      3 C11         26.0810     4.6950    25.2410 c3         1 XKN      -0.101100
      4 C12         23.8410     1.9120    24.8250 c          1 XKN       0.617700
      5 C13         23.3400     1.2090    23.5830 ca         1 XKN      -0.168600
      6 C14         22.2840     0.2710    23.7050 ca         1 XKN      -0.004000
      7 C15         21.8030    -0.3680    22.5520 ca         1 XKN       0.060400
      8 C16         20.7220    -1.6060    21.1470 cc         1 XKN       0.436700
      9 C18         23.0520    -1.8590    18.6130 ca         1 XKN      -0.155300
     10 C19         22.8230    -3.2530    18.5980 ca         1 XKN       0.162100
     11 C21         23.8770    -4.1310    18.2570 ca         1 XKN      -0.194000
     12 C22         25.1450    -3.6230    17.9320 ca         1 XKN      -0.059000
     13 C23         25.3680    -2.2380    17.9430 ca         1 XKN      -0.148000
     14 C24         24.3270    -1.3590    18.2800 ca         1 XKN      -0.060000
     15 C25         22.3310    -0.0810    21.3250 ca         1 XKN      -0.065200
     16 C26         23.3540     0.8580    21.1440 ca         1 XKN      -0.112000
     17 C27         23.8540     1.5110    22.2890 ca         1 XKN      -0.082000
     18 C28         26.2940     1.5770    24.2440 c6         1 XKN       0.070000
     19 C29         27.2340     0.9490    25.3110 c6         1 XKN       0.156800
     20 C3          30.1370     6.0510    27.2010 ca         1 XKN       0.016000
     21 C30         29.5600     5.1400    26.2980 ca         1 XKN      -0.030000
     22 C4          30.6920     5.5880    28.4080 ca         1 XKN       0.012000
     23 C5          30.6720     4.2090    28.7110 ca         1 XKN      -0.345500
     24 C6          30.0870     3.3000    27.8030 ca         1 XKN       0.024000
     25 C7          29.5300     3.7640    26.5960 ca         1 XKN      -0.106300
     26 C9          26.6970     2.7440    26.8790 c6         1 XKN       0.161800
     27 N1          27.8040     1.9710    26.2300 n3         1 XKN      -0.738600
     28 N2          25.1810     2.3710    24.8560 n          1 XKN      -0.412800
     29 N3          20.7890    -1.3210    22.4660 nd         1 XKN      -0.576100
     30 N4          21.6540    -0.8560    20.4280 na         1 XKN      -0.183600
     31 O1          32.3260     4.5990    30.7990 o          1 XKN      -0.545500
     32 O2          31.7100     2.1800    30.1440 o          1 XKN      -0.545500
     33 O3          21.5600    -3.7170    18.9160 os         1 XKN      -0.356100
     34 O4          23.0710     2.1510    25.7470 o          1 XKN      -0.602100
     35 F1          30.0670     3.6810    31.2300 f          1 XKN      -0.265900
     36 H1          30.1740     9.6830    26.3840 ha         1 XKN       0.262000
     37 H2          24.7920     3.6280    26.5240 h1         1 XKN       0.092700
     38 H3          26.4800     5.3880    25.9920 hc         1 XKN       0.040033
     39 H4          26.8390     4.5600    24.4640 hc         1 XKN       0.040033
     40 H5          25.2240     5.1860    24.7660 hc         1 XKN       0.040033
     41 H6          21.8540     0.0340    24.6750 ha         1 XKN       0.141000
     42 H7          20.0500    -2.3110    20.6720 h5         1 XKN       0.064800
     43 H8          22.1870     0.1240    18.6460 h1         1 XKN       0.066200
     44 H9          21.0140    -1.1770    18.4570 h1         1 XKN       0.066200
     45 H10         20.1840    -5.2610    19.2160 h1         1 XKN       0.046033
     46 H11         21.3860    -5.5700    17.9470 h1         1 XKN       0.046033
     47 H12         21.8560    -5.6530    19.6670 h1         1 XKN       0.046033
     48 H13         23.7320    -5.2070    18.2380 ha         1 XKN       0.121000
     49 H14         25.9540    -4.3020    17.6700 ha         1 XKN       0.116000
     50 H15         26.3500    -1.8440    17.6890 ha         1 XKN       0.120000
     51 H16         24.5140    -0.2870    18.2830 ha         1 XKN       0.114000
     52 H17         23.7490     1.0900    20.1590 ha         1 XKN       0.119000
     53 H18         24.6290     2.2640    22.1660 ha         1 XKN       0.114000
     54 H19         25.8970     0.7550    23.6350 h1         1 XKN       0.055200
     55 H20         26.8740     2.2260    23.5730 h1         1 XKN       0.055200
     56 H21         26.6540     0.2130    25.8880 h1         1 XKN       0.063200
     57 H22         28.0350     0.3890    24.8050 h1         1 XKN       0.063200
     58 H23         29.1330     5.5040    25.3660 ha         1 XKN       0.124000
     59 H24         31.1350     6.3020    29.1020 ha         1 XKN       0.146000
     60 H25         30.0540     2.2330    28.0260 ha         1 XKN       0.153000
     61 H26         29.6870     2.1040    25.2720 h1         1 XKN       0.043200
     62 H27         28.5420     3.3150    24.7360 h1         1 XKN       0.043200
     63 H28         27.0890     3.5390    27.5300 h1         1 XKN       0.064200
     64 H29         26.1480     2.0640    27.5460 h1         1 XKN       0.064200
     65 C17         21.9330    -0.8880    18.9840 c3         1 XKN       0.147900
     66 C8          28.8940     2.7780    25.6230 c3         1 XKN       0.223100
     67 S1          31.3770     3.6090    30.2640 sy         1 XKN       1.366400
     68 C2          30.1560     7.4520    26.8910 cg         1 XKN      -0.145000
     69 C20         21.2350    -5.1190    18.9370 c3         1 XKN       0.149900
@<TRIPOS>BOND
     1     1    36 1   
     2     1    68 3   
     3     2     3 1   
     4     2    26 1   
     5     2    28 1   
     6     2    37 1   
     7     3    38 1   
     8     3    39 1   
     9     3    40 1   
    10     4     5 1   
    11     4    28 1   
    12     4    34 2   
    13     5     6 ar  
    14     5    17 ar  
    15     6     7 ar  
    16     6    41 1   
    17     7    15 ar  
    18     7    29 1   
    19     8    29 2   
    20     8    30 1   
    21     8    42 1   
    22     9    10 ar  
    23     9    14 ar  
    24     9    65 1   
    25    10    11 ar  
    26    10    33 1   
    27    11    12 ar  
    28    11    48 1   
    29    12    13 ar  
    30    12    49 1   
    31    13    14 ar  
    32    13    50 1   
    33    14    51 1   
    34    15    16 ar  
    35    15    30 1   
    36    16    17 ar  
    37    16    52 1   
    38    17    53 1   
    39    18    19 1   
    40    18    28 1   
    41    18    54 1   
    42    18    55 1   
    43    19    27 1   
    44    19    56 1   
    45    19    57 1   
    46    20    21 ar  
    47    20    22 ar  
    48    20    68 1   
    49    21    25 ar  
    50    21    58 1   
    51    22    23 ar  
    52    22    59 1   
    53    23    24 ar  
    54    23    67 1   
    55    24    25 ar  
    56    24    60 1   
    57    25    66 1   
    58    26    27 1   
    59    26    63 1   
    60    26    64 1   
    61    27    66 1   
    62    30    65 1   
    63    31    67 2   
    64    32    67 2   
    65    33    69 1   
    66    35    67 1   
    67    43    65 1   
    68    44    65 1   
    69    45    69 1   
    70    46    69 1   
    71    47    69 1   
    72    61    66 1   
    73    62    66 1   
@<TRIPOS>SUBSTRUCTURE
     1 XKN         1 TEMP              0 ****  ****    0 ROOT
