@<TRIPOS>MOLECULE
XKO
   66    71     1     0     0
SMALL
abcg2


@<TRIPOS>ATOM
      1 O5           6.3590     4.8900     7.3520 os         1 XKO      -0.583700
      2 C5           6.1240     4.6220     5.9340 c3         1 XKO       0.213600
      3 C4           7.0960     5.5070     5.1860 c5         1 XKO       0.129300
      4 O4           6.9680     5.1730     3.8040 os         1 XKO      -0.460000
      5 C3           6.7980     7.0110     5.2540 c5         1 XKO       0.113300
      6 O3           7.3880     7.6790     6.3460 oh         1 XKO      -0.723000
      7 C2           7.4020     7.5180     3.9380 c5         1 XKO       0.136300
      8 O2           8.7860     7.7900     4.0890 oh         1 XKO      -0.712000
      9 N9           6.2580     6.4440     1.9720 na         1 XKO      -0.281300
     10 C8           4.9340     6.8010     2.1160 cc         1 XKO       0.377700
     11 N7           4.2770     6.7790     0.9820 nd         1 XKO      -0.505100
     12 C18          5.2050     6.3840     0.0380 cd         1 XKO       0.008400
     13 C6           5.1320     6.1700    -1.3570 cd         1 XKO       0.035000
     14 N6           4.1710     6.2790    -2.2530 nc         1 XKO      -0.268600
     15 N1           6.3350     5.7580    -1.9570 na         1 XKO      -0.153400
     16 C20          7.5150     5.5540    -1.2490 cd         1 XKO       0.818400
     17 N3           7.5810     5.7550     0.0480 nc         1 XKO      -0.768000
     18 C19          6.4400     6.1650     0.6320 cc         1 XKO       0.378500
     19 C9           4.7470     5.9390    -3.4580 cc         1 XKO      -0.027400
     20 C10          6.0640     5.6170    -3.3160 cd         1 XKO      -0.276100
     21 N2           8.5970     5.1630    -1.9450 nu         1 XKO      -0.937100
     22 S1           5.2200     4.6050     8.3900 s6         1 XKO       1.471500
     23 O6           4.5790     3.3560     8.1150 o          1 XKO      -0.540500
     24 O1           5.8100     4.8650     9.6620 o          1 XKO      -0.540500
     25 N4           4.0670     5.7530     8.0450 ns         1 XKO      -0.626300
     26 C7           4.2650     7.1190     8.0790 c          1 XKO       0.640100
     27 C11          3.0330     7.9510     7.8510 c3         1 XKO      -0.160400
     28 C12          2.8070     8.9400     9.0150 c3         1 XKO       0.013800
     29 C13          1.6450     9.8420     8.7650 cc         1 XKO      -0.156400
     30 C14          1.5810    10.9110     7.8030 ca         1 XKO      -0.094800
     31 C15          0.2800    11.4770     7.8920 ca         1 XKO      -0.043200
     32 N16         -0.4020    10.7790     8.8600 na         1 XKO      -0.231700
     33 C17          0.4190     9.8020     9.3790 cd         1 XKO      -0.143100
     34 O24          5.3690     7.6000     8.2780 o          1 XKO      -0.577100
     35 C25          2.4940    11.4470     6.8840 ca         1 XKO      -0.068000
     36 C26          2.0990    12.5100     6.0880 ca         1 XKO      -0.135000
     37 C27          0.8050    13.0550     6.1910 ca         1 XKO      -0.089000
     38 C28         -0.1190    12.5480     7.0930 ca         1 XKO      -0.126000
     39 C16          7.2690     6.3140     2.9920 c5         1 XKO       0.304300
     40 C1           9.8510     4.8410    -1.2870 c3         1 XKO       0.225100
     41 H1           5.0950     4.8730     5.6750 h1         1 XKO       0.068200
     42 H2           6.3120     3.5660     5.7530 h1         1 XKO       0.068200
     43 H3           8.1160     5.3240     5.5380 h1         1 XKO       0.098700
     44 H4           5.7150     7.1680     5.2380 h1         1 XKO       0.033700
     45 H5           6.7710     7.6550     7.0980 ho         1 XKO       0.555000
     46 H6           6.8760     8.3940     3.5520 h1         1 XKO       0.072700
     47 H7           8.8940     8.2530     4.9330 ho         1 XKO       0.540000
     48 H8           4.5170     7.0590     3.0770 h5         1 XKO       0.060800
     49 H9           4.1770     5.9460    -4.3740 h4         1 XKO       0.229000
     50 H10          6.8020     5.3240    -4.0400 h4         1 XKO       0.223000
     51 H11          8.4710     4.8370    -2.8870 hn         1 XKO       0.502000
     52 H12          3.1500     5.3790     7.8370 hn         1 XKO       0.350500
     53 H13          3.1980     8.5060     6.9240 hc         1 XKO       0.071200
     54 H14          2.1530     7.3240     7.7140 hc         1 XKO       0.071200
     55 H15          2.6450     8.3740     9.9350 hc         1 XKO       0.059700
     56 H16          3.7200     9.5230     9.1510 hc         1 XKO       0.059700
     57 H17         -1.3470    10.9590     9.1560 hn         1 XKO       0.353000
     58 H18          0.0650     9.1450    10.1570 h4         1 XKO       0.213000
     59 H19          3.4930    11.0370     6.7960 ha         1 XKO       0.113000
     60 H20          2.7950    12.9330     5.3730 ha         1 XKO       0.114000
     61 H21          0.5260    13.8850     5.5550 ha         1 XKO       0.114000
     62 H22         -1.1140    12.9680     7.1740 ha         1 XKO       0.115000
     63 H23          8.2120     6.1570     2.4700 h2         1 XKO       0.126700
     64 H24         10.5700     4.5670    -2.0550 h1         1 XKO       0.050367
     65 H25         10.2260     5.7050    -0.7390 h1         1 XKO       0.050367
     66 H26          9.7370     4.0090    -0.5870 h1         1 XKO       0.050367
@<TRIPOS>BOND
     1     1     2 1   
     2     1    22 1   
     3     2     3 1   
     4     2    41 1   
     5     2    42 1   
     6     3     4 1   
     7     3     5 1   
     8     3    43 1   
     9     4    39 1   
    10     5     6 1   
    11     5     7 1   
    12     5    44 1   
    13     6    45 1   
    14     7     8 1   
    15     7    39 1   
    16     7    46 1   
    17     8    47 1   
    18     9    10 1   
    19     9    18 1   
    20     9    39 1   
    21    10    11 2   
    22    10    48 1   
    23    11    12 1   
    24    12    13 1   
    25    12    18 2   
    26    13    14 2   
    27    13    15 1   
    28    14    19 1   
    29    15    16 1   
    30    15    20 1   
    31    16    17 2   
    32    16    21 1   
    33    17    18 1   
    34    19    20 2   
    35    19    49 1   
    36    20    50 1   
    37    21    40 1   
    38    21    51 1   
    39    22    23 2   
    40    22    24 2   
    41    22    25 1   
    42    25    26 1   
    43    25    52 1   
    44    26    27 1   
    45    26    34 2   
    46    27    28 1   
    47    27    53 1   
    48    27    54 1   
    49    28    29 1   
    50    28    55 1   
    51    28    56 1   
    52    29    30 1   
    53    29    33 2   
    54    30    31 ar  
    55    30    35 ar  
    56    31    32 1   
    57    31    38 ar  
    58    32    33 1   
    59    32    57 1   
    60    33    58 1   
    61    35    36 ar  
    62    35    59 1   
    63    36    37 ar  
    64    36    60 1   
    65    37    38 ar  
    66    37    61 1   
    67    38    62 1   
    68    39    63 1   
    69    40    64 1   
    70    40    65 1   
    71    40    66 1   
@<TRIPOS>SUBSTRUCTURE
     1 XKO         1 TEMP              0 ****  ****    0 ROOT
