@<TRIPOS>MOLECULE
XKO
   66    71     1     0     0
SMALL
No Charge or Current Charge


@<TRIPOS>ATOM
      1 O5           6.3950     5.2450     7.2760 os         1 XKO      -0.583700
      2 C5           6.0720     4.9350     5.9120 c3         1 XKO       0.213600
      3 C4           7.0630     5.7140     5.0150 c5         1 XKO       0.129300
      4 O4           6.8770     5.3450     3.6320 os         1 XKO      -0.460000
      5 C3           6.8800     7.2640     4.9960 c5         1 XKO       0.113300
      6 O3           7.3890     7.9350     6.1640 oh         1 XKO      -0.723000
      7 C2           7.7410     7.6150     3.7490 c5         1 XKO       0.136300
      8 O2           9.1100     7.6950     4.1680 oh         1 XKO      -0.712000
      9 N9           6.5150     6.6310     1.6960 na         1 XKO      -0.281300
     10 C8           5.3640     7.4090     1.7230 cc         1 XKO       0.377700
     11 N7           4.7740     7.4640     0.5320 nd         1 XKO      -0.505100
     12 C18          5.5930     6.7040    -0.2690 cd         1 XKO       0.008400
     13 C6           5.5100     6.3880    -1.6470 cd         1 XKO       0.035000
     14 N6           4.6240     6.7260    -2.5650 nc         1 XKO      -0.268600
     15 N1           6.4770     5.6100    -2.1950 na         1 XKO      -0.153400
     16 C20          7.5610     5.1270    -1.4260 cd         1 XKO       0.818400
     17 N3           7.6710     5.4070    -0.1220 nc         1 XKO      -0.768000
     18 C19          6.6630     6.1900     0.4100 cc         1 XKO       0.378500
     19 C9           5.0690     6.1310    -3.7300 cc         1 XKO      -0.027400
     20 C10          6.2410     5.4170    -3.5450 cd         1 XKO      -0.276100
     21 N2           8.5350     4.3590    -1.9780 nu         1 XKO      -0.937100
     22 S1           5.3030     4.8150     8.4200 s6         1 XKO       1.471500
     23 O6           4.7270     3.5100     8.0870 o          1 XKO      -0.540500
     24 O1           5.8810     5.0750     9.7420 o          1 XKO      -0.540500
     25 N4           4.1450     5.9620     8.1230 ns         1 XKO      -0.626300
     26 C7           4.3150     7.2990     8.0060 c          1 XKO       0.640100
     27 C11          3.0280     8.0980     7.8250 c3         1 XKO      -0.160400
     28 C12          2.6900     8.9140     9.0920 c3         1 XKO       0.013800
     29 C13          1.4280     9.7200     8.9390 cc         1 XKO      -0.156400
     30 C14          1.2580    10.9110     8.1550 ca         1 XKO      -0.094800
     31 C15         -0.0430    11.3110     8.2790 ca         1 XKO      -0.043200
     32 N16         -0.7420    10.4510     9.1050 na         1 XKO      -0.231700
     33 C17          0.1860     9.4610     9.5130 cd         1 XKO      -0.143100
     34 O24          5.4140     7.8310     7.9870 o          1 XKO      -0.577100
     35 C25          2.1800    11.6240     7.3740 ca         1 XKO      -0.068000
     36 C26          1.7250    12.7790     6.7040 ca         1 XKO      -0.135000
     37 C27          0.3770    13.1930     6.8290 ca         1 XKO      -0.089000
     38 C28         -0.5230    12.4540     7.6260 ca         1 XKO      -0.126000
     39 C16          7.4400     6.3910     2.8000 c5         1 XKO       0.304300
     40 C1           9.7000     3.7720    -1.2910 c3         1 XKO       0.225100
     41 H1           5.0500     5.2420     5.6510 h1         1 XKO       0.068200
     42 H2           6.1730     3.8580     5.7180 h1         1 XKO       0.068200
     43 H3           8.0850     5.4410     5.3150 h1         1 XKO       0.098700
     44 H4           5.8260     7.5280     4.8300 h1         1 XKO       0.033700
     45 H5           6.7060     7.8200     6.8910 ho         1 XKO       0.555000
     46 H6           7.4230     8.5660     3.2980 h1         1 XKO       0.072700
     47 H7           9.0120     7.9230     5.1310 ho         1 XKO       0.540000
     48 H8           5.0140     7.8950     2.6260 h5         1 XKO       0.060800
     49 H9           4.5050     6.2590    -4.6510 h4         1 XKO       0.229000
     50 H10          6.8560     4.8410    -4.2310 h4         1 XKO       0.223000
     51 H11          8.3940     4.1590    -2.9630 hn         1 XKO       0.502000
     52 H12          3.2240     5.5600     8.1100 hn         1 XKO       0.350500
     53 H13          3.1650     8.7920     6.9880 hc         1 XKO       0.071200
     54 H14          2.1880     7.4260     7.6140 hc         1 XKO       0.071200
     55 H15          2.5930     8.2320     9.9460 hc         1 XKO       0.059700
     56 H16          3.5260     9.5860     9.3270 hc         1 XKO       0.059700
     57 H17         -1.7220    10.5160     9.3650 hn         1 XKO       0.353000
     58 H18         -0.1030     8.6470    10.1740 h4         1 XKO       0.213000
     59 H19          3.2140    11.3000     7.2880 ha         1 XKO       0.113000
     60 H20          2.4130    13.3550     6.0900 ha         1 XKO       0.114000
     61 H21          0.0340    14.0850     6.3090 ha         1 XKO       0.114000
     62 H22         -1.5600    12.7660     7.7300 ha         1 XKO       0.115000
     63 H23          8.3780     6.0470     2.3450 h2         1 XKO       0.126700
     64 H24         10.3100     3.1900    -1.9950 h1         1 XKO       0.050367
     65 H25         10.3320     4.5590    -0.8590 h1         1 XKO       0.050367
     66 H26          9.3760     3.1030    -0.4820 h1         1 XKO       0.050367
@<TRIPOS>BOND
     1     1     2 1   
     2     1    22 1   
     3     2     3 1   
     4     2    41 1   
     5     2    42 1   
     6     3     4 1   
     7     3     5 1   
     8     3    43 1   
     9     4    39 1   
    10     5     6 1   
    11     5     7 1   
    12     5    44 1   
    13     6    45 1   
    14     7     8 1   
    15     7    39 1   
    16     7    46 1   
    17     8    47 1   
    18     9    10 1   
    19     9    18 1   
    20     9    39 1   
    21    10    11 2   
    22    10    48 1   
    23    11    12 1   
    24    12    13 1   
    25    12    18 2   
    26    13    14 2   
    27    13    15 1   
    28    14    19 1   
    29    15    16 1   
    30    15    20 1   
    31    16    17 2   
    32    16    21 1   
    33    17    18 1   
    34    19    20 2   
    35    19    49 1   
    36    20    50 1   
    37    21    40 1   
    38    21    51 1   
    39    22    23 2   
    40    22    24 2   
    41    22    25 1   
    42    25    26 1   
    43    25    52 1   
    44    26    27 1   
    45    26    34 2   
    46    27    28 1   
    47    27    53 1   
    48    27    54 1   
    49    28    29 1   
    50    28    55 1   
    51    28    56 1   
    52    29    30 1   
    53    29    33 2   
    54    30    31 ar  
    55    30    35 ar  
    56    31    32 1   
    57    31    38 ar  
    58    32    33 1   
    59    32    57 1   
    60    33    58 1   
    61    35    36 ar  
    62    35    59 1   
    63    36    37 ar  
    64    36    60 1   
    65    37    38 ar  
    66    37    61 1   
    67    38    62 1   
    68    39    63 1   
    69    40    64 1   
    70    40    65 1   
    71    40    66 1   
@<TRIPOS>SUBSTRUCTURE
     1 XKO         1 TEMP              0 ****  ****    0 ROOT
