@<TRIPOS>MOLECULE
XKP
   78    77     1     0     0
SMALL
bcc


@<TRIPOS>ATOM
      1 C11        121.3220   156.0800   109.0090 c          1 XKP       0.652100
      2 C14        123.6520   153.2170   110.2400 c3         1 XKP      -0.076400
      3 C15        122.7250   152.3450   111.0810 c3         1 XKP      -0.075400
      4 C20        120.0680   156.1100   114.3380 c3         1 XKP      -0.071400
      5 C21        121.3050   155.6330   113.5860 c3         1 XKP      -0.094100
      6 C5         116.3290   157.7790   108.8200 c          1 XKP       0.653100
      7 N          122.0930   161.4790   102.8800 n8         1 XKP      -0.880800
      8 C3         117.3650   156.3600   110.7100 c3         1 XKP      -0.068400
      9 C4         116.2080   156.5730   109.7240 c3         1 XKP      -0.192400
     10 C2         117.7000   157.5760   111.5660 c3         1 XKP      -0.077400
     11 C1         118.9460   157.3750   112.4230 c3         1 XKP      -0.080400
     12 C          118.8310   156.2590   113.4560 c3         1 XKP      -0.073400
     13 C6         118.1400   156.7440   107.5600 c3         1 XKP       0.150400
     14 C7         119.5060   157.2570   108.0120 c3         1 XKP       0.111100
     15 C19        124.9030   149.3360   112.3130 c3         1 XKP      -0.074400
     16 C17        126.2470   149.1630   113.0150 c3         1 XKP      -0.073400
     17 C9         119.8770   160.7630   103.6340 c3         1 XKP       0.205400
     18 C8         120.1090   158.2910   107.0770 c3         1 XKP       0.196400
     19 C16        123.2130   150.9120   111.2660 c3         1 XKP      -0.074400
     20 C10        120.8580   161.9080   103.5180 c3         1 XKP       0.144800
     21 C12        121.9240   154.7080   109.1260 c3         1 XKP      -0.142400
     22 O          115.6640   158.7710   108.9680 o          1 XKP      -0.504000
     23 C13        123.1410   154.6420   110.0370 c3         1 XKP      -0.066400
     24 C22        126.2940   149.7450   114.4220 c3         1 XKP      -0.088100
     25 O2         120.4560   157.7120   105.8390 os         1 XKP      -0.556200
     26 O6         120.3330   156.0950   108.1140 os         1 XKP      -0.409900
     27 O7         121.6530   157.0460   109.6480 o          1 XKP      -0.555000
     28 P          119.8090   158.2550   104.4330 p5         1 XKP       1.390800
     29 H1         124.6320   153.2730   110.7190 hc         1 XKP       0.038700
     30 H2         123.8190   152.7420   109.2660 hc         1 XKP       0.038700
     31 H3         121.7300   152.3150   110.6260 hc         1 XKP       0.038200
     32 H4         122.5910   152.8120   112.0640 hc         1 XKP       0.038200
     33 H5         120.2810   157.0640   114.8300 hc         1 XKP       0.030700
     34 H6         119.8460   155.4000   115.1400 hc         1 XKP       0.030700
     35 H7         122.1450   155.4790   114.2650 hc         1 XKP       0.033700
     36 H8         121.1140   154.6830   113.0810 hc         1 XKP       0.033700
     37 H9         121.6290   156.3460   112.8270 hc         1 XKP       0.033700
     38 H10        122.7210   162.2670   102.8020 hn         1 XKP       0.332800
     39 H11        122.5620   160.8120   103.4800 hn         1 XKP       0.332800
     40 H13        117.0690   155.5250   111.3490 hc         1 XKP       0.040700
     41 H14        118.2640   156.0190   110.1920 hc         1 XKP       0.040700
     42 H15        115.2890   156.7190   110.2900 hc         1 XKP       0.063200
     43 H16        116.0680   155.6670   109.1290 hc         1 XKP       0.063200
     44 H17        117.8670   158.4480   110.9260 hc         1 XKP       0.046700
     45 H18        116.8420   157.8260   112.2000 hc         1 XKP       0.046700
     46 H19        119.7950   157.1900   111.7590 hc         1 XKP       0.047700
     47 H20        119.1700   158.3130   112.9430 hc         1 XKP       0.047700
     48 H21        117.9590   156.4530   114.0900 hc         1 XKP       0.032200
     49 H22        118.6380   155.3020   112.9610 hc         1 XKP       0.032200
     50 H23        118.1310   156.5390   106.4900 h1         1 XKP       0.076200
     51 H24        117.8870   155.8190   108.0770 h1         1 XKP       0.076200
     52 H25        119.4020   157.7250   108.9970 h1         1 XKP       0.047700
     53 H26        124.1190   148.8520   112.9070 hc         1 XKP       0.035200
     54 H27        124.9310   148.8000   111.3590 hc         1 XKP       0.035200
     55 H28        125.3300   151.2790   111.5120 hc         1 XKP       0.038700
     56 H29        124.4080   151.3250   112.9980 hc         1 XKP       0.038700
     57 H30        126.4840   148.0970   113.0640 hc         1 XKP       0.034700
     58 H31        127.0340   149.6180   112.4040 hc         1 XKP       0.034700
     59 H32        118.9220   161.1370   104.0180 h1         1 XKP       0.027200
     60 H33        119.6920   160.3510   102.6350 h1         1 XKP       0.027200
     61 H34        121.0070   158.7120   107.5340 h1         1 XKP       0.041200
     62 H35        119.3890   159.1100   106.9810 h1         1 XKP       0.041200
     63 H36        122.4350   150.3400   111.7820 hc         1 XKP       0.035700
     64 H37        123.3320   150.4390   110.2840 hc         1 XKP       0.035700
     65 H38        121.0000   162.3570   104.5120 h1         1 XKP       0.011700
     66 H39        120.3920   162.6760   102.8960 h1         1 XKP       0.011700
     67 H40        121.1280   154.0460   109.4820 hc         1 XKP       0.071200
     68 H41        122.1740   154.3440   108.1250 hc         1 XKP       0.071200
     69 H42        123.9390   155.2550   109.6120 hc         1 XKP       0.052200
     70 H43        122.9040   155.0780   111.0100 hc         1 XKP       0.052200
     71 H44        127.2500   149.5360   114.9020 hc         1 XKP       0.030033
     72 H45        126.1620   150.8280   114.4220 hc         1 XKP       0.030033
     73 H46        125.5090   149.3180   115.0490 hc         1 XKP       0.030033
     74 C18        124.5140   150.7870   112.0510 c3         1 XKP      -0.076400
     75 O1         117.1780   157.7660   107.7860 os         1 XKP      -0.394900
     76 O3         118.3140   158.3210   104.5200 o          1 XKP      -0.815500
     77 O4         120.4890   157.4870   103.3460 o          1 XKP      -0.815500
     78 O5         120.4180   159.7830   104.5050 os         1 XKP      -0.596200
@<TRIPOS>BOND
     1     1    21 1   
     2     1    26 1   
     3     1    27 2   
     4     2     3 1   
     5     2    23 1   
     6     2    29 1   
     7     2    30 1   
     8     3    19 1   
     9     3    31 1   
    10     3    32 1   
    11     4     5 1   
    12     4    12 1   
    13     4    33 1   
    14     4    34 1   
    15     5    35 1   
    16     5    36 1   
    17     5    37 1   
    18     6     9 1   
    19     6    22 2   
    20     6    75 1   
    21     7    20 1   
    22     7    38 1   
    23     7    39 1   
    24     8     9 1   
    25     8    10 1   
    26     8    40 1   
    27     8    41 1   
    28     9    42 1   
    29     9    43 1   
    30    10    11 1   
    31    10    44 1   
    32    10    45 1   
    33    11    12 1   
    34    11    46 1   
    35    11    47 1   
    36    12    48 1   
    37    12    49 1   
    38    13    14 1   
    39    13    50 1   
    40    13    51 1   
    41    13    75 1   
    42    14    18 1   
    43    14    26 1   
    44    14    52 1   
    45    15    16 1   
    46    15    53 1   
    47    15    54 1   
    48    15    74 1   
    49    16    24 1   
    50    16    57 1   
    51    16    58 1   
    52    17    20 1   
    53    17    59 1   
    54    17    60 1   
    55    17    78 1   
    56    18    25 1   
    57    18    61 1   
    58    18    62 1   
    59    19    63 1   
    60    19    64 1   
    61    19    74 1   
    62    20    65 1   
    63    20    66 1   
    64    21    23 1   
    65    21    67 1   
    66    21    68 1   
    67    23    69 1   
    68    23    70 1   
    69    24    71 1   
    70    24    72 1   
    71    24    73 1   
    72    25    28 1   
    73    28    76 1   
    74    28    77 1   
    75    28    78 1   
    76    55    74 1   
    77    56    74 1   
@<TRIPOS>SUBSTRUCTURE
     1 XKP         1 TEMP              0 ****  ****    0 ROOT
