@<TRIPOS>MOLECULE
XKP
   78    77     1     0     0
SMALL
No Charge or Current Charge


@<TRIPOS>ATOM
      1 C11        120.5300   156.2630   109.7240 c          1 XKP       0.603100
      2 C14        123.0150   153.2170   109.9930 c3         1 XKP      -0.076400
      3 C15        123.3510   153.0460   111.4960 c3         1 XKP      -0.075400
      4 C20        118.2920   156.2280   114.5390 c3         1 XKP      -0.071400
      5 C21        119.6540   155.6680   114.0760 c3         1 XKP      -0.094100
      6 C5         116.0630   158.2130   108.2200 c          1 XKP       0.604100
      7 N          124.0360   159.7210   105.3770 n8         1 XKP      -0.991200
      8 C3         116.3880   156.7330   110.3550 c3         1 XKP      -0.068400
      9 C4         115.5130   157.0800   109.1190 c3         1 XKP      -0.192400
     10 C2         116.6880   157.9220   111.3000 c3         1 XKP      -0.077400
     11 C1         117.7190   157.5980   112.4080 c3         1 XKP      -0.080400
     12 C          117.2850   156.4850   113.3930 c3         1 XKP      -0.073400
     13 C6         117.8080   156.7490   107.2610 c3         1 XKP       0.173600
     14 C7         119.0420   157.2420   108.0650 c3         1 XKP       0.134300
     15 C19        125.8660   149.9770   111.7540 c3         1 XKP      -0.074400
     16 C17        127.2180   149.5840   111.1120 c3         1 XKP      -0.073400
     17 C9         121.6140   159.7470   104.5820 c3         1 XKP       0.228600
     18 C8         120.0960   158.0430   107.2340 c3         1 XKP       0.219600
     19 C16        123.9120   151.6530   111.8730 c3         1 XKP      -0.074400
     20 C10        122.6310   160.0420   105.7280 c3         1 XKP       0.144800
     21 C12        121.0730   154.9320   110.2420 c3         1 XKP      -0.142400
     22 O          115.7670   159.3830   108.4040 o          1 XKP      -0.455000
     23 C13        122.4530   154.6090   109.6180 c3         1 XKP      -0.066400
     24 C22        128.3930   150.5160   111.4780 c3         1 XKP      -0.088100
     25 O2         120.7210   157.1970   106.2500 os         1 XKP      -0.579400
     26 O6         119.6580   156.0840   108.6790 os         1 XKP      -0.433100
     27 O7         120.8330   157.3470   110.2020 o          1 XKP      -0.506000
     28 P          120.4350   157.3580   104.6700 p5         1 XKP       1.390800
     29 H1         123.9210   153.0510   109.3990 hc         1 XKP       0.038700
     30 H2         122.2970   152.4440   109.6900 hc         1 XKP       0.038700
     31 H3         122.4440   153.2110   112.0890 hc         1 XKP       0.038200
     32 H4         124.0690   153.8180   111.7990 hc         1 XKP       0.038200
     33 H5         118.4540   157.1580   115.0990 hc         1 XKP       0.030700
     34 H6         117.8440   155.5140   115.2420 hc         1 XKP       0.030700
     35 H7         120.2790   155.4270   114.9430 hc         1 XKP       0.033700
     36 H8         119.5180   154.7520   113.4880 hc         1 XKP       0.033700
     37 H9         120.1950   156.3980   113.4640 hc         1 XKP       0.033700
     38 H10        124.6050   159.7290   106.2320 hn         1 XKP       0.388000
     39 H11        124.0620   158.7400   105.0730 hn         1 XKP       0.388000
     40 H13        115.8650   155.9540   110.9230 hc         1 XKP       0.040700
     41 H14        117.3300   156.2810   110.0330 hc         1 XKP       0.040700
     42 H15        114.5250   157.3850   109.4830 hc         1 XKP       0.063200
     43 H16        115.4100   156.1610   108.5310 hc         1 XKP       0.063200
     44 H17        117.0840   158.7620   110.7170 hc         1 XKP       0.046700
     45 H18        115.7540   158.2690   111.7570 hc         1 XKP       0.046700
     46 H19        118.6640   157.3170   111.9320 hc         1 XKP       0.047700
     47 H20        117.9170   158.5160   112.9760 hc         1 XKP       0.047700
     48 H21        116.3180   156.7590   113.8320 hc         1 XKP       0.032200
     49 H22        117.1300   155.5460   112.8490 hc         1 XKP       0.032200
     50 H23        118.1310   156.4300   106.2640 h1         1 XKP       0.076200
     51 H24        117.3780   155.8610   107.7380 h1         1 XKP       0.076200
     52 H25        118.6740   157.9090   108.8550 h1         1 XKP       0.047700
     53 H26        125.9770   149.9960   112.8450 hc         1 XKP       0.035200
     54 H27        125.1350   149.1910   111.5270 hc         1 XKP       0.035200
     55 H28        125.2350   151.3190   110.1780 hc         1 XKP       0.038700
     56 H29        125.9960   152.1380   111.5430 hc         1 XKP       0.038700
     57 H30        127.4710   148.5660   111.4310 hc         1 XKP       0.034700
     58 H31        127.1090   149.5520   110.0210 hc         1 XKP       0.034700
     59 H32        120.6140   160.0660   104.9040 h1         1 XKP       0.027200
     60 H33        121.8810   160.3430   103.6990 h1         1 XKP       0.027200
     61 H34        120.8550   158.4520   107.9110 h1         1 XKP       0.041200
     62 H35        119.5960   158.9020   106.7660 h1         1 XKP       0.041200
     63 H36        123.9810   151.5960   112.9660 hc         1 XKP       0.035700
     64 H37        123.1960   150.8810   111.5650 hc         1 XKP       0.035700
     65 H38        122.3650   159.4550   106.6150 h1         1 XKP       0.011700
     66 H39        122.5780   161.1050   106.0000 h1         1 XKP       0.011700
     67 H40        121.1680   154.9920   111.3310 hc         1 XKP       0.071200
     68 H41        120.3830   154.1280   109.9560 hc         1 XKP       0.071200
     69 H42        122.3660   154.6630   108.5260 hc         1 XKP       0.052200
     70 H43        123.1750   155.3820   109.9110 hc         1 XKP       0.052200
     71 H44        129.3290   150.1280   111.0580 hc         1 XKP       0.030033
     72 H45        128.2370   151.5240   111.0790 hc         1 XKP       0.030033
     73 H46        128.5090   150.5850   112.5660 hc         1 XKP       0.030033
     74 C18        125.3010   151.3340   111.2720 c3         1 XKP      -0.076400
     75 O1         116.8550   157.8350   107.1560 os         1 XKP      -0.418100
     76 O3         119.1050   157.9650   104.3810 o          1 XKP      -0.815500
     77 O4         120.5940   156.0430   103.9840 o          1 XKP      -0.815500
     78 O5         121.6450   158.3430   104.2620 os         1 XKP      -0.619400
@<TRIPOS>BOND
     1     1    21 1   
     2     1    26 1   
     3     1    27 2   
     4     2     3 1   
     5     2    23 1   
     6     2    29 1   
     7     2    30 1   
     8     3    19 1   
     9     3    31 1   
    10     3    32 1   
    11     4     5 1   
    12     4    12 1   
    13     4    33 1   
    14     4    34 1   
    15     5    35 1   
    16     5    36 1   
    17     5    37 1   
    18     6     9 1   
    19     6    22 2   
    20     6    75 1   
    21     7    20 1   
    22     7    38 1   
    23     7    39 1   
    24     8     9 1   
    25     8    10 1   
    26     8    40 1   
    27     8    41 1   
    28     9    42 1   
    29     9    43 1   
    30    10    11 1   
    31    10    44 1   
    32    10    45 1   
    33    11    12 1   
    34    11    46 1   
    35    11    47 1   
    36    12    48 1   
    37    12    49 1   
    38    13    14 1   
    39    13    50 1   
    40    13    51 1   
    41    13    75 1   
    42    14    18 1   
    43    14    26 1   
    44    14    52 1   
    45    15    16 1   
    46    15    53 1   
    47    15    54 1   
    48    15    74 1   
    49    16    24 1   
    50    16    57 1   
    51    16    58 1   
    52    17    20 1   
    53    17    59 1   
    54    17    60 1   
    55    17    78 1   
    56    18    25 1   
    57    18    61 1   
    58    18    62 1   
    59    19    63 1   
    60    19    64 1   
    61    19    74 1   
    62    20    65 1   
    63    20    66 1   
    64    21    23 1   
    65    21    67 1   
    66    21    68 1   
    67    23    69 1   
    68    23    70 1   
    69    24    71 1   
    70    24    72 1   
    71    24    73 1   
    72    25    28 1   
    73    28    76 1   
    74    28    77 1   
    75    28    78 1   
    76    55    74 1   
    77    56    74 1   
@<TRIPOS>SUBSTRUCTURE
     1 XKP         1 TEMP              0 ****  ****    0 ROOT
