@<TRIPOS>MOLECULE
XKQ
   76    77     1     0     0
SMALL
abcg2


@<TRIPOS>ATOM
      1 N1           7.9690    10.3810    24.3760 n          1 XKQ      -0.384800
      2 N3           9.7510    15.9790    19.5810 ns         1 XKQ      -0.491900
      3 C4          10.9280     8.9090    24.3560 c3         1 XKQ      -0.090767
      4 C5          10.2950     7.7460    22.2510 c3         1 XKQ      -0.090767
      5 C6           6.4960     6.7940    24.1380 c          1 XKQ       0.637100
      6 C7           4.5080     5.5680    23.8820 c3         1 XKQ       0.170900
      7 C8           7.4540    11.6110    23.8100 c5         1 XKQ       0.029700
      8 C10          7.4430    11.7220    26.2080 c5         1 XKQ      -0.082700
      9 C13          5.1700    12.5400    25.6420 c5         1 XKQ      -0.078400
     10 C15          8.3100    12.1030    22.6540 c          1 XKQ       0.604100
     11 C17          7.7650    12.6880    19.2690 c3         1 XKQ      -0.086400
     12 C20          8.2430     9.0200    18.0200 c3         1 XKQ      -0.145100
     13 C21          7.8260    14.8970    20.5680 c3         1 XKQ       0.073300
     14 C22          8.4750    15.6260    19.3970 c          1 XKQ       0.606100
     15 O5           9.5200    11.9600    22.6350 o          1 XKQ      -0.593100
     16 N2           7.6160    12.7810    21.7180 ns         1 XKQ      -0.517900
     17 C16          8.2010    13.4000    20.5470 c3         1 XKQ       0.073700
     18 O4           7.8650    15.8250    18.3560 o          1 XKQ      -0.599100
     19 C23         10.5240    16.6390    18.5550 c3         1 XKQ       0.093300
     20 O3           8.2490    15.5070    21.7590 oh         1 XKQ      -0.659000
     21 C19          7.8670    10.4790    18.0030 c3         1 XKQ       0.184000
     22 F1           6.5270    10.5970    17.7110 f          1 XKQ      -0.128500
     23 F            8.5060    11.0990    16.9540 f          1 XKQ      -0.128500
     24 C9           7.4870    12.6230    24.9730 c5         1 XKQ      -0.076700
     25 C14          6.2390    13.4870    25.0780 c5         1 XKQ      -0.076400
     26 C12          5.9390    11.4710    26.4500 c5         1 XKQ      -0.078400
     27 C11          8.2450    10.4970    25.8050 c5         1 XKQ       0.116000
     28 C            8.0070     9.2850    23.6000 c          1 XKQ       0.599100
     29 O            7.5840     9.3120    22.4500 o          1 XKQ      -0.623100
     30 C1           8.5960     7.9910    24.1690 c3         1 XKQ       0.067700
     31 C2          10.0820     7.7780    23.7670 c3         1 XKQ      -0.045000
     32 C3          10.5630     6.4560    24.3750 c3         1 XKQ      -0.090767
     33 N            7.7810     6.8800    23.7430 ns         1 XKQ      -0.478900
     34 O2           5.9770     7.5300    24.9530 o          1 XKQ      -0.553000
     35 O1           5.8710     5.7810    23.5350 os         1 XKQ      -0.451100
     36 H36         10.1740    15.8250    20.4820 hn         1 XKQ       0.332500
     37 H9          10.8460     8.9410    25.4450 hc         1 XKQ       0.041922
     38 H10         11.9780     8.7460    24.1110 hc         1 XKQ       0.041922
     39 H8          10.6480     9.8860    23.9620 hc         1 XKQ       0.041922
     40 H13          9.6920     6.9850    21.7510 hc         1 XKQ       0.041922
     41 H11         10.0740     8.7050    21.7830 hc         1 XKQ       0.041922
     42 H12         11.3390     7.5100    22.0420 hc         1 XKQ       0.041922
     43 H17          4.1770     4.7240    23.2830 h1         1 XKQ       0.048033
     44 H16          4.3930     5.3220    24.9380 h1         1 XKQ       0.048033
     45 H15          3.8900     6.4360    23.6480 h1         1 XKQ       0.048033
     46 H1           6.4250    11.4570    23.4640 h1         1 XKQ       0.075700
     47 H3           7.8950    12.2150    27.0700 hc         1 XKQ       0.068700
     48 H23          4.4420    13.0750    26.2520 hc         1 XKQ       0.046700
     49 H22          4.6070    12.0750    24.8310 hc         1 XKQ       0.046700
     50 H27          8.2260    13.1860    18.4160 hc         1 XKQ       0.069700
     51 H28          6.6830    12.7910    19.1500 hc         1 XKQ       0.069700
     52 H31          7.7090     8.5030    18.8170 hc         1 XKQ       0.062033
     53 H32          8.0000     8.5410    17.0710 hc         1 XKQ       0.062033
     54 H33          9.3100     8.9070    18.2030 hc         1 XKQ       0.062033
     55 H34          6.7380    14.9840    20.4340 h1         1 XKQ       0.064700
     56 H26          6.6070    12.7470    21.7580 hn         1 XKQ       0.316500
     57 H4           9.2860    13.3190    20.6510 h1         1 XKQ       0.090700
     58 H39         11.5250    16.8130    18.9360 h1         1 XKQ       0.041367
     59 H38         10.5990    16.0260    17.6570 h1         1 XKQ       0.041367
     60 H37         10.0890    17.6000    18.2770 h1         1 XKQ       0.041367
     61 H35          7.9150    14.9880    22.4990 ho         1 XKQ       0.457000
     62 H29          7.6650    10.6900    20.0990 hc         1 XKQ       0.075200
     63 H30          9.2390    11.1260    19.4800 hc         1 XKQ       0.075200
     64 H2           8.4050    13.2140    24.9340 hc         1 XKQ       0.074700
     65 H25          6.4360    14.3020    25.7770 hc         1 XKQ       0.047200
     66 H24          5.9510    13.9450    24.1290 hc         1 XKQ       0.047200
     67 H20          5.7100    11.5290    27.5140 hc         1 XKQ       0.056700
     68 H21          5.6570    10.4660    26.1290 hc         1 XKQ       0.056700
     69 H18          7.9370     9.6030    26.3450 h1         1 XKQ       0.058700
     70 H19          9.3110    10.6530    25.9860 h1         1 XKQ       0.058700
     71 H            8.5800     8.0170    25.2610 h1         1 XKQ       0.074700
     72 H7          10.3980     6.4330    25.4540 hc         1 XKQ       0.041922
     73 H6          10.0650     5.5880    23.9420 hc         1 XKQ       0.041922
     74 H5          11.6330     6.3380    24.2000 hc         1 XKQ       0.041922
     75 H14          8.0740     6.3310    22.9510 hn         1 XKQ       0.335500
     76 C18          8.1670    11.2180    19.2860 c3         1 XKQ      -0.132400
@<TRIPOS>BOND
     1     1     7 1   
     2     1    27 1   
     3     1    28 1   
     4     2    14 1   
     5     2    19 1   
     6     2    36 1   
     7     3    31 1   
     8     3    37 1   
     9     3    38 1   
    10     3    39 1   
    11     4    31 1   
    12     4    40 1   
    13     4    41 1   
    14     4    42 1   
    15     5    33 1   
    16     5    34 2   
    17     5    35 1   
    18     6    35 1   
    19     6    43 1   
    20     6    44 1   
    21     6    45 1   
    22     7    10 1   
    23     7    24 1   
    24     7    46 1   
    25     8    24 1   
    26     8    26 1   
    27     8    27 1   
    28     8    47 1   
    29     9    25 1   
    30     9    26 1   
    31     9    48 1   
    32     9    49 1   
    33    10    15 2   
    34    10    16 1   
    35    11    17 1   
    36    11    50 1   
    37    11    51 1   
    38    11    76 1   
    39    12    21 1   
    40    12    52 1   
    41    12    53 1   
    42    12    54 1   
    43    13    14 1   
    44    13    17 1   
    45    13    20 1   
    46    13    55 1   
    47    14    18 2   
    48    16    17 1   
    49    16    56 1   
    50    17    57 1   
    51    19    58 1   
    52    19    59 1   
    53    19    60 1   
    54    20    61 1   
    55    21    22 1   
    56    21    23 1   
    57    21    76 1   
    58    24    25 1   
    59    24    64 1   
    60    25    65 1   
    61    25    66 1   
    62    26    67 1   
    63    26    68 1   
    64    27    69 1   
    65    27    70 1   
    66    28    29 2   
    67    28    30 1   
    68    30    31 1   
    69    30    33 1   
    70    30    71 1   
    71    31    32 1   
    72    32    72 1   
    73    32    73 1   
    74    32    74 1   
    75    33    75 1   
    76    62    76 1   
    77    63    76 1   
@<TRIPOS>SUBSTRUCTURE
     1 XKQ         1 TEMP              0 ****  ****    0 ROOT
