@<TRIPOS>MOLECULE
XKQ
   76    77     1     0     0
SMALL
No Charge or Current Charge


@<TRIPOS>ATOM
      1 N1           7.7050    10.4580    24.3080 n          1 XKQ      -0.384800
      2 N3          10.1600    16.2840    19.4430 ns         1 XKQ      -0.491900
      3 C4          10.5760     8.8770    24.6880 c3         1 XKQ      -0.090767
      4 C5          10.1760     7.8300    22.4290 c3         1 XKQ      -0.090767
      5 C6           6.9900     5.7380    24.2170 c          1 XKQ       0.637100
      6 C7           5.7380     3.7230    23.8710 c3         1 XKQ       0.170900
      7 C8           7.3960    11.7880    23.7080 c5         1 XKQ       0.029700
      8 C10          7.2100    11.8920    26.1520 c5         1 XKQ      -0.082700
      9 C13          5.5020    13.5160    25.9900 c5         1 XKQ      -0.078400
     10 C15          8.3690    12.2100    22.5610 c          1 XKQ       0.604100
     11 C17          7.7060    12.8540    19.2280 c3         1 XKQ      -0.086400
     12 C20          7.5230     9.0220    18.1820 c3         1 XKQ      -0.145100
     13 C21          8.1540    15.1550    20.3740 c3         1 XKQ       0.073300
     14 C22          8.9160    15.7670    19.1540 c          1 XKQ       0.606100
     15 O5           9.5270    11.8480    22.4000 o          1 XKQ      -0.593100
     16 N2           7.7240    13.0840    21.7030 ns         1 XKQ      -0.517900
     17 C16          8.3030    13.6050    20.4500 c3         1 XKQ       0.073700
     18 O4           8.4370    15.8390    18.0290 o          1 XKQ      -0.599100
     19 C23         11.0470    16.9240    18.4710 c3         1 XKQ       0.093300
     20 O3           8.5780    15.7390    21.6360 oh         1 XKQ      -0.659000
     21 C19          7.3700    10.5480    18.0410 c3         1 XKQ       0.184000
     22 F1           6.0700    10.8390    17.8090 f          1 XKQ      -0.128500
     23 F            8.0680    10.9580    16.9570 f          1 XKQ      -0.128500
     24 C9           7.6200    12.7450    24.9300 c5         1 XKQ      -0.076700
     25 C14          6.5450    13.8920    24.8870 c5         1 XKQ      -0.076400
     26 C12          5.6580    11.9820    26.1310 c5         1 XKQ      -0.078400
     27 C11          7.6430    10.4450    25.7900 c5         1 XKQ       0.116000
     28 C            7.6640     9.2770    23.5330 c          1 XKQ       0.599100
     29 O            7.2130     9.3180    22.3910 o          1 XKQ      -0.623100
     30 C1           8.2330     7.9410    24.1260 c3         1 XKQ       0.067700
     31 C2           9.7920     7.7690    23.9350 c3         1 XKQ      -0.045000
     32 C3          10.2600     6.4000    24.5070 c3         1 XKQ      -0.090767
     33 N            7.4770     6.8130    23.5320 ns         1 XKQ      -0.478900
     34 O2           7.1030     5.5570    25.4190 o          1 XKQ      -0.553000
     35 O1           6.3380     4.9210    23.3450 os         1 XKQ      -0.451100
     36 H36         10.4370    16.2390    20.4180 hn         1 XKQ       0.332500
     37 H9          10.3570     8.8520    25.7620 hc         1 XKQ       0.041922
     38 H10         11.6580     8.7390    24.5700 hc         1 XKQ       0.041922
     39 H8          10.3360     9.8760    24.3070 hc         1 XKQ       0.041922
     40 H13          9.6510     7.0600    21.8510 hc         1 XKQ       0.041922
     41 H11          9.9350     8.8070    21.9930 hc         1 XKQ       0.041922
     42 H12         11.2530     7.6680    22.2950 hc         1 XKQ       0.041922
     43 H17          5.2490     3.1560    23.0690 h1         1 XKQ       0.048033
     44 H16          6.4960     3.0760    24.3320 h1         1 XKQ       0.048033
     45 H15          4.9800     3.9650    24.6270 h1         1 XKQ       0.048033
     46 H1           6.3630    11.7980    23.3340 h1         1 XKQ       0.075700
     47 H3           7.6380    12.2480    27.0980 hc         1 XKQ       0.068700
     48 H23          5.7340    14.0210    26.9360 hc         1 XKQ       0.046700
     49 H22          4.4820    13.8080    25.7150 hc         1 XKQ       0.046700
     50 H27          8.1970    13.2100    18.3140 hc         1 XKQ       0.069700
     51 H28          6.6430    13.1090    19.1340 hc         1 XKQ       0.069700
     52 H31          6.9430     8.6520    19.0360 hc         1 XKQ       0.062033
     53 H32          7.1660     8.5130    17.2790 hc         1 XKQ       0.062033
     54 H33          8.5740     8.7500    18.3370 hc         1 XKQ       0.062033
     55 H34          7.0920    15.3820    20.2120 h1         1 XKQ       0.064700
     56 H26          6.7480    13.2770    21.8970 hn         1 XKQ       0.316500
     57 H4           9.3820    13.3950    20.4570 h1         1 XKQ       0.090700
     58 H39         11.9770    17.2290    18.9670 h1         1 XKQ       0.041367
     59 H38         11.2820    16.2170    17.6640 h1         1 XKQ       0.041367
     60 H37         10.5550    17.8100    18.0480 h1         1 XKQ       0.041367
     61 H35          8.2730    15.1290    22.3440 ho         1 XKQ       0.457000
     62 H29          7.3030    10.9290    20.1610 hc         1 XKQ       0.075200
     63 H30          8.9140    11.0610    19.4710 hc         1 XKQ       0.075200
     64 H2           8.6540    13.1070    25.0050 hc         1 XKQ       0.074700
     65 H25          6.9960    14.8680    25.1010 hc         1 XKQ       0.047200
     66 H24          6.0660    13.9880    23.9060 hc         1 XKQ       0.047200
     67 H20          5.2050    11.6010    27.0540 hc         1 XKQ       0.056700
     68 H21          5.1920    11.4450    25.2960 hc         1 XKQ       0.056700
     69 H18          6.9360     9.6970    26.1740 h1         1 XKQ       0.058700
     70 H19          8.6300    10.2280    26.2140 h1         1 XKQ       0.058700
     71 H            8.0230     7.9460    25.2020 h1         1 XKQ       0.074700
     72 H7           9.9640     6.2930    25.5580 hc         1 XKQ       0.041922
     73 H6           9.8350     5.5600    23.9450 hc         1 XKQ       0.041922
     74 H5          11.3520     6.3050    24.4550 hc         1 XKQ       0.041922
     75 H14          7.2610     6.8430    22.5430 hn         1 XKQ       0.335500
     76 C18          7.8600    11.3090    19.2960 c3         1 XKQ      -0.132400
@<TRIPOS>BOND
     1     1     7 1   
     2     1    27 1   
     3     1    28 1   
     4     2    14 1   
     5     2    19 1   
     6     2    36 1   
     7     3    31 1   
     8     3    37 1   
     9     3    38 1   
    10     3    39 1   
    11     4    31 1   
    12     4    40 1   
    13     4    41 1   
    14     4    42 1   
    15     5    33 1   
    16     5    34 2   
    17     5    35 1   
    18     6    35 1   
    19     6    43 1   
    20     6    44 1   
    21     6    45 1   
    22     7    10 1   
    23     7    24 1   
    24     7    46 1   
    25     8    24 1   
    26     8    26 1   
    27     8    27 1   
    28     8    47 1   
    29     9    25 1   
    30     9    26 1   
    31     9    48 1   
    32     9    49 1   
    33    10    15 2   
    34    10    16 1   
    35    11    17 1   
    36    11    50 1   
    37    11    51 1   
    38    11    76 1   
    39    12    21 1   
    40    12    52 1   
    41    12    53 1   
    42    12    54 1   
    43    13    14 1   
    44    13    17 1   
    45    13    20 1   
    46    13    55 1   
    47    14    18 2   
    48    16    17 1   
    49    16    56 1   
    50    17    57 1   
    51    19    58 1   
    52    19    59 1   
    53    19    60 1   
    54    20    61 1   
    55    21    22 1   
    56    21    23 1   
    57    21    76 1   
    58    24    25 1   
    59    24    64 1   
    60    25    65 1   
    61    25    66 1   
    62    26    67 1   
    63    26    68 1   
    64    27    69 1   
    65    27    70 1   
    66    28    29 2   
    67    28    30 1   
    68    30    31 1   
    69    30    33 1   
    70    30    71 1   
    71    31    32 1   
    72    32    72 1   
    73    32    73 1   
    74    32    74 1   
    75    33    75 1   
    76    62    76 1   
    77    63    76 1   
@<TRIPOS>SUBSTRUCTURE
     1 XKQ         1 TEMP              0 ****  ****    0 ROOT
