@<TRIPOS>MOLECULE
XKR
   46    48     1     0     0
SMALL
abcg2


@<TRIPOS>ATOM
      1 C10         -1.9820    18.3630   -16.7150 cc         1 XKR      -0.121000
      2 C13         -2.2120    16.5190   -18.3730 ca         1 XKR      -0.162000
      3 C20         -4.1110    17.9270   -17.8950 ca         1 XKR      -0.162000
      4 C21          3.0380    18.3980   -12.4260 cc         1 XKR       0.425700
      5 C26          2.7840    16.7070   -10.6840 cc         1 XKR      -0.213300
      6 C02          3.1780    20.8660   -12.6880 c3         1 XKR       0.137800
      7 C03          2.8770    19.5350   -13.3970 c3         1 XKR       0.081400
      8 C05          1.0880    18.6520   -14.8210 c          1 XKR       0.626700
      9 C07         -0.2350    18.8900   -15.4050 cc         1 XKR      -0.226600
     10 C08         -1.1840    19.8920   -15.2490 cd         1 XKR      -0.136000
     11 C09         -2.2780    19.5640   -16.0680 cd         1 XKR      -0.152000
     12 C12         -2.7680    17.5940   -17.6680 ca         1 XKR       0.056000
     13 C14         -2.9890    15.8110   -19.2650 ca         1 XKR       0.210500
     14 C16         -4.3220    16.1240   -19.5070 ca         1 XKR       0.017000
     15 C18         -4.8530    17.1980   -18.7970 ca         1 XKR       0.210500
     16 C23          4.0490    16.8650   -11.1810 cd         1 XKR       0.299300
     17 C27          2.2990    15.7770    -9.6280 c3         1 XKR       0.234900
     18 F15         -2.4380    14.7830   -19.9330 f          1 XKR      -0.158000
     19 F19         -6.1410    17.5250   -18.9990 f          1 XKR      -0.158000
     20 N01          2.9620    21.9900   -13.5960 n8         1 XKR      -1.025200
     21 N04          1.5400    19.5880   -13.9530 ns         1 XKR      -0.485900
     22 N11         -0.7390    17.9830   -16.2950 na         1 XKR      -0.060000
     23 N22          4.1740    17.8290   -12.1620 nd         1 XKR      -0.629000
     24 O06          1.7340    17.6350   -15.0970 o          1 XKR      -0.612100
     25 O25          6.0130    16.9470    -9.8430 oh         1 XKR      -0.662000
     26 O28          1.4670    14.7740   -10.2290 oh         1 XKR      -0.659000
     27 S29          1.7070    17.8020   -11.4870 ss         1 XKR       0.011600
     28 CL17        -5.2730    15.2260   -20.6310 cl         1 XKR      -0.137000
     29 H131        -1.1780    16.2260   -18.2590 ha         1 XKR       0.140000
     30 H201        -4.5880    18.7400   -17.3680 ha         1 XKR       0.140000
     31 H242         4.9870    15.1800   -10.2640 h1         1 XKR       0.040200
     32 H241         5.8680    15.8850   -11.6310 h1         1 XKR       0.040200
     33 H022         4.1960    20.7990   -12.2900 h1         1 XKR       0.052700
     34 H021         2.4960    20.9720   -11.8420 h1         1 XKR       0.052700
     35 H031         3.6110    19.3820   -14.1950 h1         1 XKR       0.085700
     36 H081        -1.0970    20.7600   -14.6150 ha         1 XKR       0.137000
     37 H091        -3.1810    20.1390   -16.1900 ha         1 XKR       0.138000
     38 H272         3.1590    15.3200    -9.1330 h1         1 XKR       0.037700
     39 H271         1.7310    16.3300    -8.8730 h1         1 XKR       0.037700
     40 H011         2.9970    22.8620   -13.0810 hn         1 XKR       0.408000
     41 H012         3.7010    22.0290   -14.2910 hn         1 XKR       0.408000
     42 H041         1.0990    20.4970   -13.9370 hn         1 XKR       0.341500
     43 H111        -0.2450    17.1400   -16.5470 hn         1 XKR       0.371000
     44 H251         6.8530    16.5060    -9.6620 ho         1 XKR       0.441000
     45 H281         1.0560    14.2670    -9.5170 ho         1 XKR       0.443000
     46 C24          5.2660    16.1180   -10.7480 c3         1 XKR       0.133300
@<TRIPOS>BOND
     1     1    11 2   
     2     1    12 1   
     3     1    22 1   
     4     2    12 ar  
     5     2    13 ar  
     6     2    29 1   
     7     3    12 ar  
     8     3    15 ar  
     9     3    30 1   
    10     4     7 1   
    11     4    23 2   
    12     4    27 1   
    13     5    16 2   
    14     5    17 1   
    15     5    27 1   
    16     6     7 1   
    17     6    20 1   
    18     6    33 1   
    19     6    34 1   
    20     7    21 1   
    21     7    35 1   
    22     8     9 1   
    23     8    21 1   
    24     8    24 2   
    25     9    10 2   
    26     9    22 1   
    27    10    11 1   
    28    10    36 1   
    29    11    37 1   
    30    13    14 ar  
    31    13    18 1   
    32    14    15 ar  
    33    14    28 1   
    34    15    19 1   
    35    16    23 1   
    36    16    46 1   
    37    17    26 1   
    38    17    38 1   
    39    17    39 1   
    40    20    40 1   
    41    20    41 1   
    42    21    42 1   
    43    22    43 1   
    44    25    44 1   
    45    25    46 1   
    46    26    45 1   
    47    31    46 1   
    48    32    46 1   
@<TRIPOS>SUBSTRUCTURE
     1 XKR         1 TEMP              0 ****  ****    0 ROOT
