@<TRIPOS>MOLECULE
XKS
   12    12     1     0     0
SMALL
bcc


@<TRIPOS>ATOM
      1 O01        -18.0480    21.0230    -7.4160 oh         1 XKS      -0.573800
      2 C02        -16.8200    21.2440    -8.0570 cy         1 XKS       0.112100
      3 C03        -16.9630    22.2610    -9.1970 cy         1 XKS       0.117300
      4 N04        -16.4080    23.3080    -8.3270 n6         1 XKS      -0.779200
      5 C05        -15.9070    22.2900    -7.3910 cy         1 XKS       0.117300
      6 H011       -17.8870    20.4900    -6.6320 ho         1 XKS       0.404000
      7 H021       -16.3300    20.3020    -8.3240 h1         1 XKS       0.040700
      8 H032       -16.3390    22.0030   -10.0570 h1         1 XKS       0.052700
      9 H031       -17.9820    22.4440    -9.5510 h1         1 XKS       0.052700
     10 H1         -15.6900    23.8760    -8.7550 hn         1 XKS       0.349800
     11 H052       -14.8470    22.0470    -7.5100 h1         1 XKS       0.052700
     12 H051       -16.0970    22.5000    -6.3340 h1         1 XKS       0.052700
@<TRIPOS>BOND
     1     1     2 1   
     2     1     6 1   
     3     2     3 1   
     4     2     5 1   
     5     2     7 1   
     6     3     4 1   
     7     3     8 1   
     8     3     9 1   
     9     4     5 1   
    10     4    10 1   
    11     5    11 1   
    12     5    12 1   
@<TRIPOS>SUBSTRUCTURE
     1 XKS         1 TEMP              0 ****  ****    0 ROOT
