@<TRIPOS>MOLECULE
XKS
   12    12     1     0     0
SMALL
No Charge or Current Charge


@<TRIPOS>ATOM
      1 O01        -18.1160    21.0140    -7.3800 oh         1 XKS      -0.636000
      2 C02        -16.8760    21.2130    -8.0720 cy         1 XKS       0.135300
      3 C03        -16.8980    22.2360    -9.2650 cy         1 XKS       0.117300
      4 N04        -16.5310    23.2860    -8.2530 n6         1 XKS      -0.834400
      5 C05        -15.8590    22.2270    -7.4260 cy         1 XKS       0.117300
      6 H011       -17.8990    20.7790    -6.4520 ho         1 XKS       0.443000
      7 H021       -16.4360    20.2410    -8.3230 h1         1 XKS       0.040700
      8 H032       -16.1260    22.0250   -10.0160 h1         1 XKS       0.052700
      9 H031       -17.8720    22.3480    -9.7590 h1         1 XKS       0.052700
     10 H1         -15.9500    24.0750    -8.5660 hn         1 XKS       0.405000
     11 H052       -14.8190    22.0130    -7.7030 h1         1 XKS       0.052700
     12 H051       -15.9360    22.3320    -6.3370 h1         1 XKS       0.052700
@<TRIPOS>BOND
     1     1     2 1   
     2     1     6 1   
     3     2     3 1   
     4     2     5 1   
     5     2     7 1   
     6     3     4 1   
     7     3     8 1   
     8     3     9 1   
     9     4     5 1   
    10     4    10 1   
    11     5    11 1   
    12     5    12 1   
@<TRIPOS>SUBSTRUCTURE
     1 XKS         1 TEMP              0 ****  ****    0 ROOT
