@<TRIPOS>MOLECULE
XKU
   60    63     1     0     0
SMALL
abcg2


@<TRIPOS>ATOM
      1 C1           8.9390     9.6260   -10.2430 c6         1 XKU      -0.094900
      2 C2           9.7560    10.9030   -10.4240 c6         1 XKU       0.247500
      3 C22          7.2900    10.3610    -5.8540 cx         1 XKU      -0.454700
      4 C23         15.3830     4.6480    -9.2590 c3         1 XKU       0.165000
      5 C24         16.0890     6.0020    -9.3750 c3         1 XKU       0.092600
      6 C25         14.8320     8.9000   -13.8900 c3         1 XKU       0.381300
      7 C30         16.4250     3.6180    -8.8250 c3         1 XKU      -0.122600
      8 C32          7.6920     8.9780    -5.4450 cx         1 XKU      -0.063400
      9 C3           8.9200    12.1180   -10.0440 c6         1 XKU      -0.094900
     10 C4           8.3560    11.9700    -8.6410 c6         1 XKU       0.200300
     11 N5           7.5770    10.7350    -8.5590 n3         1 XKU      -0.725500
     12 C6           8.3710     9.5360    -8.8360 c6         1 XKU       0.200300
     13 N7          10.2380    11.0540   -11.7790 nu         1 XKU      -0.910100
     14 S8           6.4330    10.6210    -7.3720 s6         1 XKU       1.237100
     15 C9          11.3290    10.4620   -12.2790 ca         1 XKU       0.414900
     16 N10         12.0970     9.7470   -11.4580 nb         1 XKU      -0.280000
     17 C11         13.2110     9.2010   -11.9290 ca         1 XKU       0.346500
     18 C12         13.5710     9.3910   -13.2750 ca         1 XKU      -0.395300
     19 C13         12.6720    10.1200   -14.0510 ca         1 XKU       0.203900
     20 N14         11.5630    10.6480   -13.5890 nb         1 XKU      -0.256000
     21 C15         13.9680     8.4590   -10.9280 cc         1 XKU      -0.324500
     22 C16         14.8410     7.3890   -11.0220 cd         1 XKU      -0.084000
     23 N17         15.2190     7.0850    -9.7760 na         1 XKU       0.140800
     24 N18         14.6550     7.8790    -8.8600 nd         1 XKU      -0.542800
     25 C19         13.8890     8.7010    -9.5370 cc         1 XKU       0.296900
     26 O20          5.7700    11.9150    -7.2970 o          1 XKU      -0.532000
     27 O21          5.6350     9.4360    -7.6530 o          1 XKU      -0.532000
     28 F26         15.0430     9.4470   -15.0930 f          1 XKU      -0.117667
     29 F27         15.9130     9.1820   -13.1480 f          1 XKU      -0.117667
     30 F28         14.8390     7.5670   -14.0830 f          1 XKU      -0.117667
     31 O29         14.8990     4.3560   -10.5570 oh         1 XKU      -0.664000
     32 C31         14.2390     4.6940    -8.2520 c3         1 XKU      -0.122600
     33 C33          6.5740     9.6630    -4.7370 cx         1 XKU      -0.063400
     34 H35          8.1200     9.6100   -10.9670 hc         1 XKU       0.063450
     35 H34          9.5630     8.7500   -10.4280 hc         1 XKU       0.063450
     36 H36         10.6240    10.8590    -9.7600 h1         1 XKU       0.076700
     37 H47          7.9480    11.1890    -5.6120 h1         1 XKU       0.122700
     38 H48         16.8990     5.9310   -10.1020 h1         1 XKU       0.077200
     39 H49         16.5260     6.2760    -8.4160 h1         1 XKU       0.077200
     40 H53         15.9750     2.6260    -8.7580 hc         1 XKU       0.047867
     41 H51         17.2510     3.5670    -9.5370 hc         1 XKU       0.047867
     42 H52         16.8370     3.8600    -7.8450 hc         1 XKU       0.047867
     43 H58          7.4450     8.1520    -6.0990 hc         1 XKU       0.085950
     44 H57          8.6490     8.8880    -4.9490 hc         1 XKU       0.085950
     45 H37          9.5280    13.0230   -10.0840 hc         1 XKU       0.063450
     46 H38          8.0960    12.2400   -10.7540 hc         1 XKU       0.063450
     47 H39          9.1780    11.9610    -7.9130 h1         1 XKU       0.057200
     48 H40          7.7190    12.8220    -8.4140 h1         1 XKU       0.057200
     49 H41          7.7430     8.6510    -8.7540 h1         1 XKU       0.057200
     50 H42          9.1840     9.4370    -8.1060 h1         1 XKU       0.057200
     51 H43          9.6370    11.5110   -12.4480 hn         1 XKU       0.509000
     52 H44         12.8640    10.2880   -15.1050 h4         1 XKU       0.036100
     53 H45         15.2000     6.8130   -11.8550 h4         1 XKU       0.177000
     54 H46         13.3180     9.4650    -9.0330 h4         1 XKU       0.046100
     55 H50         14.4050     3.5290   -10.5200 ho         1 XKU       0.451000
     56 H55         13.7790     3.7080    -8.1620 hc         1 XKU       0.047867
     57 H56         14.5980     4.9800    -7.2620 hc         1 XKU       0.047867
     58 H54         13.4620     5.3990    -8.5480 hc         1 XKU       0.047867
     59 H59          6.7440    10.0550    -3.7440 hc         1 XKU       0.085950
     60 H60          5.5680     9.3070    -4.9140 hc         1 XKU       0.085950
@<TRIPOS>BOND
     1     1     2 1   
     2     1    12 1   
     3     1    34 1   
     4     1    35 1   
     5     2     9 1   
     6     2    13 1   
     7     2    36 1   
     8     3     8 1   
     9     3    14 1   
    10     3    33 1   
    11     3    37 1   
    12     4     5 1   
    13     4     7 1   
    14     4    31 1   
    15     4    32 1   
    16     5    23 1   
    17     5    38 1   
    18     5    39 1   
    19     6    18 1   
    20     6    28 1   
    21     6    29 1   
    22     6    30 1   
    23     7    40 1   
    24     7    41 1   
    25     7    42 1   
    26     8    33 1   
    27     8    43 1   
    28     8    44 1   
    29     9    10 1   
    30     9    45 1   
    31     9    46 1   
    32    10    11 1   
    33    10    47 1   
    34    10    48 1   
    35    11    12 1   
    36    11    14 1   
    37    12    49 1   
    38    12    50 1   
    39    13    15 1   
    40    13    51 1   
    41    14    26 2   
    42    14    27 2   
    43    15    16 ar  
    44    15    20 ar  
    45    16    17 ar  
    46    17    18 ar  
    47    17    21 1   
    48    18    19 ar  
    49    19    20 ar  
    50    19    52 1   
    51    21    22 2   
    52    21    25 1   
    53    22    23 1   
    54    22    53 1   
    55    23    24 1   
    56    24    25 2   
    57    25    54 1   
    58    31    55 1   
    59    32    56 1   
    60    32    57 1   
    61    32    58 1   
    62    33    59 1   
    63    33    60 1   
@<TRIPOS>SUBSTRUCTURE
     1 XKU         1 TEMP              0 ****  ****    0 ROOT
