@<TRIPOS>MOLECULE
XKU
   60    63     1     0     0
SMALL
No Charge or Current Charge


@<TRIPOS>ATOM
      1 C1           9.0510     9.5180   -10.2680 c6         1 XKU      -0.094900
      2 C2           9.6510    10.9250   -10.4820 c6         1 XKU       0.247500
      3 C22          7.5500    10.3630    -5.9050 cx         1 XKU      -0.454700
      4 C23         15.1260     4.6320    -9.3210 c3         1 XKU       0.165000
      5 C24         15.9550     5.9520    -9.2870 c3         1 XKU       0.092600
      6 C25         15.1110     9.0540   -13.7090 c3         1 XKU       0.381300
      7 C30         16.0050     3.4450    -8.8680 c3         1 XKU      -0.122600
      8 C32          8.2760     9.1290    -5.4070 cx         1 XKU      -0.063400
      9 C3           8.5520    11.9890   -10.2870 c6         1 XKU      -0.094900
     10 C4           7.8860    11.8340    -8.9020 c6         1 XKU       0.200300
     11 N5           7.3300    10.4680    -8.7220 n3         1 XKU      -0.725500
     12 C6           8.3760     9.4260    -8.8830 c6         1 XKU       0.200300
     13 N7          10.2190    11.0420   -11.8370 nu         1 XKU      -0.910100
     14 S8           6.3550    10.2730    -7.3140 s6         1 XKU       1.237100
     15 C9          11.4320    10.5180   -12.2630 ca         1 XKU       0.414900
     16 N10         12.2310     9.9500   -11.3490 nb         1 XKU      -0.280000
     17 C11         13.4060     9.4500   -11.7720 ca         1 XKU       0.346500
     18 C12         13.7720     9.5290   -13.1410 ca         1 XKU      -0.395300
     19 C13         12.8450    10.1430   -14.0080 ca         1 XKU       0.203900
     20 N14         11.6750    10.6390   -13.5720 nb         1 XKU      -0.256000
     21 C15         14.1680     8.7520   -10.7390 cc         1 XKU      -0.324500
     22 C16         14.7380     7.5230   -10.9130 cd         1 XKU      -0.084000
     23 N17         15.2130     7.1780    -9.6420 na         1 XKU       0.140800
     24 N18         14.9050     8.1320    -8.6760 nd         1 XKU      -0.542800
     25 C19         14.2540     9.0410    -9.3710 cc         1 XKU       0.296900
     26 O20          5.4650    11.4370    -7.2440 o          1 XKU      -0.532000
     27 O21          5.7780     8.9270    -7.3790 o          1 XKU      -0.532000
     28 F26         15.4510     9.7280   -14.8320 f          1 XKU      -0.117667
     29 F27         16.1400     9.2280   -12.8500 f          1 XKU      -0.117667
     30 F28         15.0760     7.7470   -14.0450 f          1 XKU      -0.117667
     31 O29         14.7150     4.3620   -10.6660 oh         1 XKU      -0.664000
     32 C31         13.8530     4.7210    -8.4460 c3         1 XKU      -0.122600
     33 C33          7.1930     9.7640    -4.5600 cx         1 XKU      -0.063400
     34 H35          8.3120     9.2990   -11.0500 hc         1 XKU       0.063450
     35 H34          9.8330     8.7520   -10.3460 hc         1 XKU       0.063450
     36 H36         10.4300    11.1020    -9.7230 h1         1 XKU       0.076700
     37 H47          8.0680    11.3190    -5.9350 h1         1 XKU       0.122700
     38 H48         16.8040     5.8600    -9.9740 h1         1 XKU       0.077200
     39 H49         16.3680     6.0830    -8.2790 h1         1 XKU       0.077200
     40 H53         15.4490     2.5000    -8.9100 hc         1 XKU       0.047867
     41 H51         16.8910     3.3470    -9.5070 hc         1 XKU       0.047867
     42 H52         16.3470     3.5880    -7.8350 hc         1 XKU       0.047867
     43 H58          8.0530     8.1700    -5.8710 hc         1 XKU       0.085950
     44 H57          9.3060     9.2410    -5.0770 hc         1 XKU       0.085950
     45 H37          8.9810    12.9960   -10.3790 hc         1 XKU       0.063450
     46 H38          7.7860    11.8940   -11.0680 hc         1 XKU       0.063450
     47 H39          8.6250    12.0580    -8.1180 h1         1 XKU       0.057200
     48 H40          7.0930    12.5930    -8.8230 h1         1 XKU       0.057200
     49 H41          7.9410     8.4200    -8.7820 h1         1 XKU       0.057200
     50 H42          9.1460     9.5250    -8.1040 h1         1 XKU       0.057200
     51 H43          9.6440    11.4460   -12.5760 hn         1 XKU       0.509000
     52 H44         13.0380    10.2510   -15.0740 h4         1 XKU       0.036100
     53 H45         14.8220     6.8660   -11.7690 h4         1 XKU       0.177000
     54 H46         13.8500     9.9030    -8.8560 h4         1 XKU       0.046100
     55 H50         14.2040     3.5230   -10.6480 ho         1 XKU       0.451000
     56 H55         13.3080     3.7690    -8.4410 hc         1 XKU       0.047867
     57 H56         14.1140     4.9660    -7.4090 hc         1 XKU       0.047867
     58 H54         13.1700     5.4960    -8.8140 hc         1 XKU       0.047867
     59 H59          7.5020    10.2980    -3.6640 hc         1 XKU       0.085950
     60 H60          6.2510     9.2270    -4.4630 hc         1 XKU       0.085950
@<TRIPOS>BOND
     1     1     2 1   
     2     1    12 1   
     3     1    34 1   
     4     1    35 1   
     5     2     9 1   
     6     2    13 1   
     7     2    36 1   
     8     3     8 1   
     9     3    14 1   
    10     3    33 1   
    11     3    37 1   
    12     4     5 1   
    13     4     7 1   
    14     4    31 1   
    15     4    32 1   
    16     5    23 1   
    17     5    38 1   
    18     5    39 1   
    19     6    18 1   
    20     6    28 1   
    21     6    29 1   
    22     6    30 1   
    23     7    40 1   
    24     7    41 1   
    25     7    42 1   
    26     8    33 1   
    27     8    43 1   
    28     8    44 1   
    29     9    10 1   
    30     9    45 1   
    31     9    46 1   
    32    10    11 1   
    33    10    47 1   
    34    10    48 1   
    35    11    12 1   
    36    11    14 1   
    37    12    49 1   
    38    12    50 1   
    39    13    15 1   
    40    13    51 1   
    41    14    26 2   
    42    14    27 2   
    43    15    16 ar  
    44    15    20 ar  
    45    16    17 ar  
    46    17    18 ar  
    47    17    21 1   
    48    18    19 ar  
    49    19    20 ar  
    50    19    52 1   
    51    21    22 2   
    52    21    25 1   
    53    22    23 1   
    54    22    53 1   
    55    23    24 1   
    56    24    25 2   
    57    25    54 1   
    58    31    55 1   
    59    32    56 1   
    60    32    57 1   
    61    32    58 1   
    62    33    59 1   
    63    33    60 1   
@<TRIPOS>SUBSTRUCTURE
     1 XKU         1 TEMP              0 ****  ****    0 ROOT
