@<TRIPOS>MOLECULE
XKV
   17    16     1     0     0
SMALL
No Charge or Current Charge


@<TRIPOS>ATOM
      1 C01        -46.4190    21.8810    -1.9610 c3         1 XKV      -0.093100
      2 C02        -44.9150    22.2080    -1.8370 c3         1 XKV      -0.071400
      3 C03        -44.2660    21.7820    -0.4920 c3         1 XKV       0.089500
      4 N04        -42.8660    22.3210    -0.4220 n8         1 XKV      -0.987200
      5 C05        -44.3920    20.2330    -0.2330 c          1 XKV       0.561100
      6 N06        -45.4770    19.8160     0.4610 nt         1 XKV      -0.605000
      7 O07        -43.5500    19.4200    -0.5860 o          1 XKV      -0.612100
      8 H012       -46.8190    22.2900    -2.8970 hc         1 XKV       0.034700
      9 H013       -46.5900    20.7980    -1.9690 hc         1 XKV       0.034700
     10 H011       -46.9840    22.3190    -1.1290 hc         1 XKV       0.034700
     11 H022       -44.3800    21.7300    -2.6660 hc         1 XKV       0.058700
     12 H021       -44.7890    23.2910    -1.9650 hc         1 XKV       0.058700
     13 H031       -44.8320    22.2760     0.3110 h1         1 XKV       0.057700
     14 H041       -42.4660    22.1010     0.4990 hn         1 XKV       0.407000
     15 H042       -42.2750    21.7740    -1.0620 hn         1 XKV       0.407000
     16 H062       -45.5870    18.8330     0.6630 hn         1 XKV       0.312500
     17 H061       -46.1700    20.4820     0.7710 hn         1 XKV       0.312500
@<TRIPOS>BOND
     1     1     2 1   
     2     1     8 1   
     3     1     9 1   
     4     1    10 1   
     5     2     3 1   
     6     2    11 1   
     7     2    12 1   
     8     3     4 1   
     9     3     5 1   
    10     3    13 1   
    11     4    14 1   
    12     4    15 1   
    13     5     6 1   
    14     5     7 2   
    15     6    16 1   
    16     6    17 1   
@<TRIPOS>SUBSTRUCTURE
     1 XKV         1 TEMP              0 ****  ****    0 ROOT
