@<TRIPOS>MOLECULE
XKV
   17    16     1     0     0
SMALL
bcc


@<TRIPOS>ATOM
      1 C01        -46.3690    21.8500    -2.0130 c3         1 XKV      -0.093100
      2 C02        -44.9010    22.2080    -1.8280 c3         1 XKV      -0.071400
      3 C03        -44.3200    21.7940    -0.4750 c3         1 XKV       0.089500
      4 N04        -42.9440    22.2490    -0.3770 n8         1 XKV      -0.876800
      5 C05        -44.4500    20.2800    -0.3070 c          1 XKV       0.628100
      6 N06        -45.3760    19.8680     0.5700 nt         1 XKV      -0.672000
      7 O07        -43.7450    19.5120    -0.9490 o          1 XKV      -0.612100
      8 H012       -46.7440    22.2470    -2.9560 hc         1 XKV       0.034700
      9 H013       -46.5340    20.7720    -2.0280 hc         1 XKV       0.034700
     10 H011       -46.9830    22.2670    -1.2120 hc         1 XKV       0.034700
     11 H022       -44.3040    21.7520    -2.6240 hc         1 XKV       0.058700
     12 H021       -44.7690    23.2880    -1.9230 hc         1 XKV       0.058700
     13 H031       -44.8940    22.2980     0.3110 h1         1 XKV       0.057700
     14 H041       -42.5720    22.0330     0.5400 hn         1 XKV       0.351800
     15 H042       -42.3750    21.7330    -1.0380 hn         1 XKV       0.351800
     16 H062       -45.5530    18.8860     0.7110 hn         1 XKV       0.312500
     17 H061       -45.9470    20.5180     1.0820 hn         1 XKV       0.312500
@<TRIPOS>BOND
     1     1     2 1   
     2     1     8 1   
     3     1     9 1   
     4     1    10 1   
     5     2     3 1   
     6     2    11 1   
     7     2    12 1   
     8     3     4 1   
     9     3     5 1   
    10     3    13 1   
    11     4    14 1   
    12     4    15 1   
    13     5     6 1   
    14     5     7 2   
    15     6    16 1   
    16     6    17 1   
@<TRIPOS>SUBSTRUCTURE
     1 XKV         1 TEMP              0 ****  ****    0 ROOT
