@<TRIPOS>MOLECULE
XKW
   44    46     1     0     0
SMALL
No Charge or Current Charge


@<TRIPOS>ATOM
      1 C10         -3.2450   -17.0050    13.9620 cc         1 XKW      -0.240500
      2 C13         -5.2100   -16.9990    15.5400 ca         1 XKW      -0.156000
      3 C15         -5.3820   -15.1970    17.1370 ca         1 XKW      -0.263300
      4 C22          1.0080   -17.0940     8.7330 cc         1 XKW       0.389700
      5 C24          0.4770   -15.5810     7.1930 cd         1 XKW       0.279900
      6 C02          0.8080   -19.6160     8.8470 c3         1 XKW       0.147800
      7 C03          0.8800   -18.2940     9.6560 c3         1 XKW       0.089400
      8 C05         -0.4160   -17.2120    11.5370 c          1 XKW       0.639700
      9 C07         -1.6240   -17.3570    12.3820 cc         1 XKW      -0.221600
     10 C08         -2.5660   -18.3630    12.3020 cd         1 XKW      -0.145000
     11 C09         -3.5650   -18.1470    13.2750 cd         1 XKW      -0.147000
     12 C12         -4.0200   -16.4170    15.0610 ca         1 XKW       0.464500
     13 C14         -5.9050   -16.3860    16.5940 ca         1 XKW      -0.014000
     14 C16         -4.1860   -14.6890    16.6050 ca         1 XKW       0.406900
     15 C25          1.7560   -15.1660     7.4830 cc         1 XKW      -0.237300
     16 F19         -6.0600   -13.1270    18.1060 f          1 XKW      -0.111000
     17 F20         -5.4320   -14.7070    19.4610 f          1 XKW      -0.111000
     18 F21         -7.3520   -14.8340    18.4520 f          1 XKW      -0.111000
     19 N04         -0.2520   -18.2000    10.5990 ns         1 XKW      -0.475900
     20 N11         -2.0560   -16.5180    13.4160 na         1 XKW      -0.034000
     21 N17         -3.5170   -15.2790    15.5900 nb         1 XKW      -0.697000
     22 N23          0.0450   -16.6910     7.9070 nd         1 XKW      -0.644000
     23 O06          0.3800   -16.2920    11.6630 o          1 XKW      -0.629100
     24 O27          3.0660   -14.3940     5.6350 oh         1 XKW      -0.660000
     25 S28          2.4910   -16.1740     8.6960 ss         1 XKW       0.040600
     26 H131        -5.5970   -17.9140    15.1070 ha         1 XKW       0.136000
     27 H241        -0.1870   -15.1190     6.4730 h4         1 XKW       0.041100
     28 H261         3.2690   -13.6680     7.5790 h1         1 XKW       0.036700
     29 H262         1.7880   -13.1720     6.7390 h1         1 XKW       0.036700
     30 H021        -0.0420   -19.5660     8.1500 h1         1 XKW       0.050200
     31 H022         1.7260   -19.7300     8.2520 h1         1 XKW       0.050200
     32 H031         1.7950   -18.3340    10.2610 h1         1 XKW       0.092700
     33 H081        -2.5570   -19.1980    11.6070 ha         1 XKW       0.135000
     34 H091        -4.4280   -18.7870    13.4340 ha         1 XKW       0.135000
     35 H141        -6.8230   -16.8320    16.9740 ha         1 XKW       0.137000
     36 H161        -3.7410   -13.7770    17.0030 h4         1 XKW       0.038100
     37 H011         0.6350   -21.6600     9.1160 hn         1 XKW       0.400500
     38 H1           1.4690   -20.9410    10.2950 hn         1 XKW       0.400500
     39 H041        -0.9300   -18.9500    10.5990 hn         1 XKW       0.328500
     40 H111        -1.5780   -15.6760    13.7280 hn         1 XKW       0.387000
     41 H271         3.5390   -13.6060     5.2870 ho         1 XKW       0.446000
     42 C18         -6.0610   -14.4660    18.2890 c3         1 XKW       0.354300
     43 N01          0.6350   -20.8180     9.7070 n8         1 XKW      -1.005200
     44 C26          2.4890   -14.0060     6.8820 c3         1 XKW       0.238900
@<TRIPOS>BOND
     1     1    11 2   
     2     1    12 1   
     3     1    20 1   
     4     2    12 ar  
     5     2    13 ar  
     6     2    26 1   
     7     3    13 ar  
     8     3    14 ar  
     9     3    42 1   
    10     4     7 1   
    11     4    22 2   
    12     4    25 1   
    13     5    15 2   
    14     5    22 1   
    15     5    27 1   
    16     6     7 1   
    17     6    30 1   
    18     6    31 1   
    19     6    43 1   
    20     7    19 1   
    21     7    32 1   
    22     8     9 1   
    23     8    19 1   
    24     8    23 2   
    25     9    10 2   
    26     9    20 1   
    27    10    11 1   
    28    10    33 1   
    29    11    34 1   
    30    12    21 ar  
    31    13    35 1   
    32    14    21 ar  
    33    14    36 1   
    34    15    25 1   
    35    15    44 1   
    36    16    42 1   
    37    17    42 1   
    38    18    42 1   
    39    19    39 1   
    40    20    40 1   
    41    24    41 1   
    42    24    44 1   
    43    28    44 1   
    44    29    44 1   
    45    37    43 1   
    46    38    43 1   
@<TRIPOS>SUBSTRUCTURE
     1 XKW         1 TEMP              0 ****  ****    0 ROOT
