@<TRIPOS>MOLECULE
XKW
   44    46     1     0     0
SMALL
abcg2


@<TRIPOS>ATOM
      1 C10         -3.5620   -16.8470    13.5510 cc         1 XKW      -0.240500
      2 C13         -5.4540   -16.3160    15.0820 ca         1 XKW      -0.156000
      3 C15         -4.9410   -15.3510    17.2060 ca         1 XKW      -0.263300
      4 C22          1.0810   -17.3140     8.7230 cc         1 XKW       0.389700
      5 C24          0.9740   -16.4090     6.7110 cd         1 XKW       0.279900
      6 C02          1.1420   -19.7520     9.3480 c3         1 XKW       0.147800
      7 C03          0.9230   -18.3190     9.8370 c3         1 XKW       0.089400
      8 C05         -0.5860   -17.4720    11.5930 c          1 XKW       0.639700
      9 C07         -1.9740   -17.3950    12.0700 cc         1 XKW      -0.221600
     10 C08         -3.1940   -17.8040    11.5390 cd         1 XKW      -0.145000
     11 C09         -4.1920   -17.4570    12.4670 cd         1 XKW      -0.147000
     12 C12         -4.0820   -16.3210    14.8000 ca         1 XKW       0.464500
     13 C14         -5.8870   -15.8250    16.2970 ca         1 XKW      -0.014000
     14 C16         -3.5990   -15.3790    16.8430 ca         1 XKW       0.406900
     15 C25          1.4240   -15.3040     7.3700 cc         1 XKW      -0.237300
     16 F19         -5.6500   -13.4620    18.4520 f          1 XKW      -0.111000
     17 F20         -4.3970   -14.9110    19.4660 f          1 XKW      -0.111000
     18 F21         -6.4660   -15.3890    19.0120 f          1 XKW      -0.111000
     19 N04         -0.3860   -18.1700    10.4560 ns         1 XKW      -0.475900
     20 N11         -2.2260   -16.8200    13.2800 na         1 XKW      -0.034000
     21 N17         -3.1750   -15.8500    15.6760 nb         1 XKW      -0.697000
     22 N23          0.7780   -17.5320     7.4750 nd         1 XKW      -0.644000
     23 O06          0.3300   -16.9280    12.2210 o          1 XKW      -0.629100
     24 O27          3.0950   -13.6480     6.9940 oh         1 XKW      -0.660000
     25 S28          1.6250   -15.6970     9.0440 ss         1 XKW       0.040600
     26 H131        -6.1640   -16.6940    14.3610 ha         1 XKW       0.136000
     27 H241         0.7690   -16.4400     5.6490 h4         1 XKW       0.041100
     28 H261         1.0920   -13.1980     7.3190 h1         1 XKW       0.036700
     29 H262         1.4390   -13.9540     5.7540 h1         1 XKW       0.036700
     30 H021         0.3430   -20.0210     8.6550 h1         1 XKW       0.050200
     31 H022         2.0800   -19.7670     8.7810 h1         1 XKW       0.050200
     32 H031         1.6550   -18.0950    10.6130 h1         1 XKW       0.092700
     33 H081        -3.3470   -18.2900    10.5890 ha         1 XKW       0.135000
     34 H091        -5.2500   -17.6340    12.3660 ha         1 XKW       0.135000
     35 H141        -6.9410   -15.8160    16.5400 ha         1 XKW       0.137000
     36 H161        -2.8380   -15.0140    17.5230 h4         1 XKW       0.038100
     37 H011         1.1340   -21.6390    10.1260 hn         1 XKW       0.400500
     38 H1           1.9600   -20.5730    11.0320 hn         1 XKW       0.400500
     39 H041        -1.1750   -18.5810     9.9820 hn         1 XKW       0.328500
     40 H111        -1.5230   -16.4370    13.8940 hn         1 XKW       0.387000
     41 H271         3.2220   -12.7110     6.7980 ho         1 XKW       0.446000
     42 C18         -5.3590   -14.7870    18.5270 c3         1 XKW       0.354300
     43 N01          1.1200   -20.6860    10.4730 n8         1 XKW      -1.005200
     44 C26          1.7060   -13.9520     6.8160 c3         1 XKW       0.238900
@<TRIPOS>BOND
     1     1    11 2   
     2     1    12 1   
     3     1    20 1   
     4     2    12 ar  
     5     2    13 ar  
     6     2    26 1   
     7     3    13 ar  
     8     3    14 ar  
     9     3    42 1   
    10     4     7 1   
    11     4    22 2   
    12     4    25 1   
    13     5    15 2   
    14     5    22 1   
    15     5    27 1   
    16     6     7 1   
    17     6    30 1   
    18     6    31 1   
    19     6    43 1   
    20     7    19 1   
    21     7    32 1   
    22     8     9 1   
    23     8    19 1   
    24     8    23 2   
    25     9    10 2   
    26     9    20 1   
    27    10    11 1   
    28    10    33 1   
    29    11    34 1   
    30    12    21 ar  
    31    13    35 1   
    32    14    21 ar  
    33    14    36 1   
    34    15    25 1   
    35    15    44 1   
    36    16    42 1   
    37    17    42 1   
    38    18    42 1   
    39    19    39 1   
    40    20    40 1   
    41    24    41 1   
    42    24    44 1   
    43    28    44 1   
    44    29    44 1   
    45    37    43 1   
    46    38    43 1   
@<TRIPOS>SUBSTRUCTURE
     1 XKW         1 TEMP              0 ****  ****    0 ROOT
