@<TRIPOS>MOLECULE
XKY
   14    14     1     0     0
SMALL
abcg2


@<TRIPOS>ATOM
      1 N01        -23.0880    42.3820    15.1450 n1         1 XKY      -0.444000
      2 C02        -23.8230    41.9930    14.3500 c1         1 XKY       0.282900
      3 C03        -24.7550    41.5240    13.3340 c5         1 XKY       0.176600
      4 C04        -25.8730    42.5880    13.0090 c5         1 XKY       0.122800
      5 N05        -27.1080    41.9960    13.4740 n7         1 XKY      -0.845400
      6 C06        -26.8600    40.5730    13.3590 c5         1 XKY       0.341000
      7 N07        -25.4740    40.3230    13.7650 n7         1 XKY      -0.847400
      8 H031       -24.1700    41.3220    12.4330 h1         1 XKY       0.101700
      9 H041       -25.6950    43.5590    13.4670 h1         1 XKY       0.070700
     10 H042       -25.9000    42.7270    11.9270 h1         1 XKY       0.070700
     11 H051       -27.2420    42.2270    14.4520 hn         1 XKY       0.406000
     12 H061       -27.5500    39.9870    13.9630 h2         1 XKY       0.075200
     13 H062       -26.9790    40.2770    12.3130 h2         1 XKY       0.075200
     14 H071       -25.4450    40.2460    14.7750 hn         1 XKY       0.413000
@<TRIPOS>BOND
     1     1     2 3   
     2     2     3 1   
     3     3     4 1   
     4     3     7 1   
     5     3     8 1   
     6     4     5 1   
     7     4     9 1   
     8     4    10 1   
     9     5     6 1   
    10     5    11 1   
    11     6     7 1   
    12     6    12 1   
    13     6    13 1   
    14     7    14 1   
@<TRIPOS>SUBSTRUCTURE
     1 XKY         1 TEMP              0 ****  ****    0 ROOT
