@<TRIPOS>MOLECULE
XKY
   14    14     1     0     0
SMALL
No Charge or Current Charge


@<TRIPOS>ATOM
      1 N01        -22.7960    42.3980    14.9110 n1         1 XKY      -0.444000
      2 C02        -23.6500    42.0170    14.2140 c1         1 XKY       0.282900
      3 C03        -24.7680    41.5250    13.3640 c5         1 XKY       0.176600
      4 C04        -25.8520    42.6010    13.0810 c5         1 XKY       0.122800
      5 N05        -27.1320    41.9210    13.4320 n7         1 XKY      -0.845400
      6 C06        -26.8610    40.4880    13.2950 c5         1 XKY       0.341000
      7 N07        -25.5630    40.4090    13.9630 n7         1 XKY      -0.847400
      8 H031       -24.3130    41.2070    12.4150 h1         1 XKY       0.101700
      9 H041       -25.7130    43.5200    13.6700 h1         1 XKY       0.070700
     10 H042       -25.8340    42.8820    12.0180 h1         1 XKY       0.070700
     11 H051       -27.3620    42.0970    14.4170 hn         1 XKY       0.406000
     12 H061       -27.6250    39.8690    13.7900 h2         1 XKY       0.075200
     13 H062       -26.7740    40.2040    12.2350 h2         1 XKY       0.075200
     14 H071       -25.7170    40.5860    14.9610 hn         1 XKY       0.413000
@<TRIPOS>BOND
     1     1     2 3   
     2     2     3 1   
     3     3     4 1   
     4     3     7 1   
     5     3     8 1   
     6     4     5 1   
     7     4     9 1   
     8     4    10 1   
     9     5     6 1   
    10     5    11 1   
    11     6     7 1   
    12     6    12 1   
    13     6    13 1   
    14     7    14 1   
@<TRIPOS>SUBSTRUCTURE
     1 XKY         1 TEMP              0 ****  ****    0 ROOT
