@<TRIPOS>MOLECULE
XL0
  125   124     1     0     0
SMALL
No Charge or Current Charge


@<TRIPOS>ATOM
      1 C1         112.7360   119.7660    96.1870 c3         1 XL0       0.221600
      2 C11        115.8810   119.0750    94.0600 c3         1 XL0       0.199600
      3 C12        115.6030   118.4570    92.6590 c3         1 XL0       0.167300
      4 C13        114.3910   117.4810    92.6580 c3         1 XL0       0.167600
      5 C2         112.1420   118.6850    97.1230 c3         1 XL0       0.158300
      6 C21        113.0150   116.4940    97.7240 c          1 XL0       0.615100
      7 C22        113.5460   115.1880    97.1290 c3         1 XL0      -0.135400
      8 C23        112.4920   114.0510    97.1210 c3         1 XL0      -0.063400
      9 C24        112.1720   113.4820    98.5240 c3         1 XL0      -0.082400
     10 C25        111.3130   112.1990    98.4780 c3         1 XL0      -0.074400
     11 C26        111.1240   111.5470    99.8670 c3         1 XL0      -0.077400
     12 C27        110.3410   110.2160    99.8110 c3         1 XL0      -0.074400
     13 C28        110.3030   109.4740   101.1660 c3         1 XL0      -0.048200
     14 C29        109.6210   108.1200   101.0750 c2         1 XL0      -0.215200
     15 C3         110.6010   118.6000    96.9860 c3         1 XL0       0.152600
     16 C31        108.7450   117.3950    97.9340 c          1 XL0       0.592100
     17 C32        108.3680   116.2830    98.9130 c3         1 XL0      -0.142400
     18 C33        108.1920   114.9330    98.1750 c3         1 XL0      -0.067400
     19 C34        107.8480   113.7410    99.0980 c3         1 XL0      -0.078400
     20 C35        106.4940   113.8800    99.8360 c3         1 XL0      -0.076400
     21 C36        106.0390   112.6040   100.5820 c3         1 XL0      -0.073400
     22 C37        107.0080   112.1390   101.6970 c3         1 XL0      -0.075400
     23 C38        106.4600   110.9790   102.5570 c3         1 XL0      -0.043200
     24 C39        106.2380   109.6870   101.7880 c2         1 XL0      -0.208200
     25 O11        114.1360   119.9030    96.4700 os         1 XL0      -0.586400
     26 O12        115.0280   120.2250    94.2200 os         1 XL0      -0.594400
     27 O13        114.2770   122.2870    95.5470 o          1 XL0      -0.807500
     28 O14        116.3670   121.1430    96.2040 o          1 XL0      -0.807500
     29 O21        112.7080   117.4040    96.7430 os         1 XL0      -0.442100
     30 O22        112.9200   116.7000    98.9270 o          1 XL0      -0.481000
     31 O31        110.0950   117.6150    97.9080 os         1 XL0      -0.442100
     32 O32        107.9310   118.0070    97.2560 o          1 XL0      -0.499000
     33 OC2        115.3520   119.5340    91.7410 oh         1 XL0      -0.659000
     34 OC3        114.6610   116.3120    93.4520 oh         1 XL0      -0.665000
     35 P          114.9940   120.9820    95.6420 p5         1 XL0       1.392800
     36 C210       109.0550   107.4470   102.0900 c2         1 XL0      -0.223200
     37 C211       109.0020   107.8900   103.5420 c3         1 XL0      -0.043200
     38 C212       108.7800   106.7180   104.5230 c3         1 XL0      -0.074400
     39 C213       108.5450   107.1880   105.9750 c3         1 XL0      -0.077400
     40 C214       108.3490   106.0210   106.9670 c3         1 XL0      -0.076400
     41 C215       108.0260   106.5040   108.4000 c3         1 XL0      -0.073400
     42 C216       107.9040   105.3730   109.4490 c3         1 XL0      -0.072400
     43 C217       106.7250   104.4020   109.2090 c3         1 XL0      -0.079400
     44 C218       106.5630   103.3600   110.3320 c3         1 XL0      -0.089100
     45 C310       105.6940   108.5590   102.2760 c2         1 XL0      -0.227200
     46 C311       105.2080   108.3230   103.6940 c3         1 XL0      -0.044200
     47 C312       103.6930   108.0230   103.7530 c3         1 XL0      -0.071400
     48 C313       103.1480   107.7240   105.1740 c3         1 XL0      -0.074400
     49 C314       103.1360   106.2310   105.5960 c3         1 XL0      -0.074400
     50 C315       104.5190   105.5470   105.6810 c3         1 XL0      -0.077400
     51 C316       104.4480   104.1190   106.2560 c3         1 XL0      -0.090100
     52 H1         112.5730   119.4760    95.1410 h1         1 XL0       0.026700
     53 H2         112.2140   120.7160    96.3650 h1         1 XL0       0.026700
     54 H3         116.9360   119.3750    94.1090 h1         1 XL0       0.025700
     55 H4         115.7050   118.3310    94.8480 h1         1 XL0       0.025700
     56 H5         116.4920   117.8970    92.3390 h1         1 XL0       0.011700
     57 H6         114.1770   117.1840    91.6230 h1         1 XL0       0.031700
     58 H7         113.5060   118.0040    93.0450 h1         1 XL0       0.031700
     59 H8         112.3970   118.9650    98.1530 h1         1 XL0       0.085700
     60 H9         114.4210   114.8620    97.7030 hc         1 XL0       0.072200
     61 H10        113.8360   115.3700    96.0880 hc         1 XL0       0.072200
     62 H11        111.5690   114.4060    96.6460 hc         1 XL0       0.045700
     63 H12        112.8760   113.2380    96.4920 hc         1 XL0       0.045700
     64 H13        113.1140   113.2560    99.0390 hc         1 XL0       0.044200
     65 H14        111.6540   114.2410    99.1220 hc         1 XL0       0.044200
     66 H15        110.3340   112.4290    98.0420 hc         1 XL0       0.036200
     67 H16        111.7940   111.4730    97.8120 hc         1 XL0       0.036200
     68 H17        112.1130   111.3590   100.3050 hc         1 XL0       0.036700
     69 H18        110.6080   112.2470   100.5360 hc         1 XL0       0.036700
     70 H19        109.3150   110.4110    99.4720 hc         1 XL0       0.038700
     71 H20        110.8080   109.5630    99.0630 hc         1 XL0       0.038700
     72 H21        111.3320   109.3330   101.5170 hc         1 XL0       0.045200
     73 H22        109.8020   110.1080   101.9080 hc         1 XL0       0.045200
     74 H23        109.6000   107.6900   100.0710 ha         1 XL0       0.168000
     75 H24        110.3450   118.3310    95.9520 h1         1 XL0       0.055700
     76 H25        110.1670   119.5850    97.2000 h1         1 XL0       0.055700
     77 H26        107.4300   116.5570    99.4060 hc         1 XL0       0.071700
     78 H27        109.1720   116.1600    99.6490 hc         1 XL0       0.071700
     79 H28        109.1190   114.7000    97.6370 hc         1 XL0       0.051200
     80 H29        107.4080   115.0350    97.4130 hc         1 XL0       0.051200
     81 H30        107.8290   112.8270    98.4910 hc         1 XL0       0.040200
     82 H31        108.6540   113.6170    99.8300 hc         1 XL0       0.040200
     83 H32        106.5500   114.7060   100.5550 hc         1 XL0       0.040200
     84 H33        105.7170   114.1480    99.1090 hc         1 XL0       0.040200
     85 H34        105.0550   112.7970   101.0250 hc         1 XL0       0.035700
     86 H35        105.9000   111.7970    99.8520 hc         1 XL0       0.035700
     87 H36        107.9630   111.8320   101.2550 hc         1 XL0       0.043700
     88 H37        107.2230   112.9880   102.3570 hc         1 XL0       0.043700
     89 H38        107.1680   110.7990   103.3750 hc         1 XL0       0.043200
     90 H39        105.5230   111.3000   103.0280 hc         1 XL0       0.043200
     91 H40        106.5780   109.7090   100.7510 ha         1 XL0       0.166000
     92 H42        115.0470   120.2620    92.3350 ho         1 XL0       0.439000
     93 H43        113.8760   115.7260    93.3720 ho         1 XL0       0.439000
     94 H44        108.5800   106.4830   101.8940 ha         1 XL0       0.167000
     95 H45        109.9240   108.4160   103.8170 hc         1 XL0       0.045700
     96 H46        108.1880   108.6100   103.6700 hc         1 XL0       0.045700
     97 H47        107.9110   106.1330   104.1970 hc         1 XL0       0.038700
     98 H48        109.6490   106.0490   104.4880 hc         1 XL0       0.038700
     99 H49        109.3970   107.7980   106.3000 hc         1 XL0       0.037200
    100 H50        107.6590   107.8350   106.0020 hc         1 XL0       0.037200
    101 H51        107.5380   105.3800   106.6030 hc         1 XL0       0.037700
    102 H52        109.2580   105.4080   106.9860 hc         1 XL0       0.037700
    103 H53        108.8150   107.1930   108.7260 hc         1 XL0       0.037200
    104 H54        107.0930   107.0830   108.3860 hc         1 XL0       0.037200
    105 H55        108.8430   104.8060   109.4800 hc         1 XL0       0.036200
    106 H56        107.7850   105.8340   110.4380 hc         1 XL0       0.036200
    107 H57        105.7940   104.9750   109.1160 hc         1 XL0       0.039200
    108 H58        106.8740   103.8700   108.2630 hc         1 XL0       0.039200
    109 H59        105.7190   102.6940   110.1140 hc         1 XL0       0.029700
    110 H60        107.4680   102.7480   110.4270 hc         1 XL0       0.029700
    111 H61        106.3720   103.8520   111.2940 hc         1 XL0       0.029700
    112 H62        105.5980   107.6870   101.6270 ha         1 XL0       0.162000
    113 H63        105.7720   107.4930   104.1270 hc         1 XL0       0.043700
    114 H64        105.4180   109.1890   104.3320 hc         1 XL0       0.043700
    115 H65        103.1630   108.8980   103.3570 hc         1 XL0       0.038700
    116 H66        103.4520   107.1880   103.0830 hc         1 XL0       0.038700
    117 H67        103.7020   108.3120   105.9160 hc         1 XL0       0.038700
    118 H68        102.1120   108.0830   105.2190 hc         1 XL0       0.038700
    119 H69        102.6520   106.1620   106.5790 hc         1 XL0       0.034700
    120 H70        102.5010   105.6680   104.9000 hc         1 XL0       0.034700
    121 H71        104.9590   105.4860   104.6800 hc         1 XL0       0.039200
    122 H72        105.1900   106.1520   106.3020 hc         1 XL0       0.039200
    123 H73        105.4430   103.6600   106.2600 hc         1 XL0       0.030367
    124 H74        104.0700   104.1330   107.2860 hc         1 XL0       0.030367
    125 H75        103.7840   103.4900   105.6510 hc         1 XL0       0.030367
@<TRIPOS>BOND
     1     1     5 1   
     2     1    25 1   
     3     1    52 1   
     4     1    53 1   
     5     2     3 1   
     6     2    26 1   
     7     2    54 1   
     8     2    55 1   
     9     3     4 1   
    10     3    33 1   
    11     3    56 1   
    12     4    34 1   
    13     4    57 1   
    14     4    58 1   
    15     5    15 1   
    16     5    29 1   
    17     5    59 1   
    18     6     7 1   
    19     6    29 1   
    20     6    30 2   
    21     7     8 1   
    22     7    60 1   
    23     7    61 1   
    24     8     9 1   
    25     8    62 1   
    26     8    63 1   
    27     9    10 1   
    28     9    64 1   
    29     9    65 1   
    30    10    11 1   
    31    10    66 1   
    32    10    67 1   
    33    11    12 1   
    34    11    68 1   
    35    11    69 1   
    36    12    13 1   
    37    12    70 1   
    38    12    71 1   
    39    13    14 1   
    40    13    72 1   
    41    13    73 1   
    42    14    36 2   
    43    14    74 1   
    44    15    31 1   
    45    15    75 1   
    46    15    76 1   
    47    16    17 1   
    48    16    31 1   
    49    16    32 2   
    50    17    18 1   
    51    17    77 1   
    52    17    78 1   
    53    18    19 1   
    54    18    79 1   
    55    18    80 1   
    56    19    20 1   
    57    19    81 1   
    58    19    82 1   
    59    20    21 1   
    60    20    83 1   
    61    20    84 1   
    62    21    22 1   
    63    21    85 1   
    64    21    86 1   
    65    22    23 1   
    66    22    87 1   
    67    22    88 1   
    68    23    24 1   
    69    23    89 1   
    70    23    90 1   
    71    24    45 2   
    72    24    91 1   
    73    25    35 1   
    74    26    35 1   
    75    27    35 1   
    76    28    35 1   
    77    33    92 1   
    78    34    93 1   
    79    36    37 1   
    80    36    94 1   
    81    37    38 1   
    82    37    95 1   
    83    37    96 1   
    84    38    39 1   
    85    38    97 1   
    86    38    98 1   
    87    39    40 1   
    88    39    99 1   
    89    39   100 1   
    90    40    41 1   
    91    40   101 1   
    92    40   102 1   
    93    41    42 1   
    94    41   103 1   
    95    41   104 1   
    96    42    43 1   
    97    42   105 1   
    98    42   106 1   
    99    43    44 1   
   100    43   107 1   
   101    43   108 1   
   102    44   109 1   
   103    44   110 1   
   104    44   111 1   
   105    45    46 1   
   106    45   112 1   
   107    46    47 1   
   108    46   113 1   
   109    46   114 1   
   110    47    48 1   
   111    47   115 1   
   112    47   116 1   
   113    48    49 1   
   114    48   117 1   
   115    48   118 1   
   116    49    50 1   
   117    49   119 1   
   118    49   120 1   
   119    50    51 1   
   120    50   121 1   
   121    50   122 1   
   122    51   123 1   
   123    51   124 1   
   124    51   125 1   
@<TRIPOS>SUBSTRUCTURE
     1 XL0         1 TEMP              0 ****  ****    0 ROOT
