@<TRIPOS>MOLECULE
XL0
  125   124     1     0     0
SMALL
abcg2


@<TRIPOS>ATOM
      1 C1         111.9450   119.1410    95.8610 c3         1 XL0       0.221600
      2 C11        115.6100   118.9090    94.9570 c3         1 XL0       0.199600
      3 C12        116.0220   117.9400    93.8610 c3         1 XL0       0.167300
      4 C13        114.8530   117.1690    93.2640 c3         1 XL0       0.167600
      5 C2         111.5070   118.0520    96.8240 c3         1 XL0       0.158300
      6 C21        113.2650   117.1950    98.2190 c          1 XL0       0.615100
      7 C22        114.3720   116.1740    98.2180 c3         1 XL0      -0.135400
      8 C23        113.8670   114.7440    98.0100 c3         1 XL0      -0.063400
      9 C24        112.8960   114.2870    99.0910 c3         1 XL0      -0.082400
     10 C25        112.3870   112.8670    98.8800 c3         1 XL0      -0.074400
     11 C26        111.4660   112.4090   100.0040 c3         1 XL0      -0.077400
     12 C27        110.8200   111.0540    99.7560 c3         1 XL0      -0.074400
     13 C28        109.9030   110.6360   100.9010 c3         1 XL0      -0.048200
     14 C29        109.1250   109.3860   100.6240 c2         1 XL0      -0.215200
     15 C3         110.3980   117.2270    96.2090 c3         1 XL0       0.152600
     16 C31        108.9970   115.4370    96.8380 c          1 XL0       0.592100
     17 C32        108.5320   114.6090    98.0050 c3         1 XL0      -0.142400
     18 C33        107.6740   113.4200    97.6000 c3         1 XL0      -0.067400
     19 C34        107.1310   112.6320    98.7900 c3         1 XL0      -0.078400
     20 C35        106.1830   113.4340    99.6780 c3         1 XL0      -0.076400
     21 C36        105.3730   112.5830   100.6510 c3         1 XL0      -0.073400
     22 C37        106.2140   111.8350   101.6820 c3         1 XL0      -0.075400
     23 C38        105.3880   111.1720   102.7870 c3         1 XL0      -0.043200
     24 C39        104.4740   110.0900   102.2970 c2         1 XL0      -0.208200
     25 O11        113.0090   119.8520    96.4420 os         1 XL0      -0.586400
     26 O12        114.6350   119.8100    94.4740 os         1 XL0      -0.594400
     27 O13        113.0300   121.7090    94.6530 o          1 XL0      -0.807500
     28 O14        114.9300   121.4370    96.4500 o          1 XL0      -0.807500
     29 O21        112.6040   117.1720    97.0640 os         1 XL0      -0.442100
     30 O22        112.9970   117.9230    99.1400 o          1 XL0      -0.481000
     31 O31        109.9300   116.3170    97.2010 os         1 XL0      -0.442100
     32 O32        108.5760   115.3570    95.7120 o          1 XL0      -0.499000
     33 OC2        116.6590   118.5840    92.7790 oh         1 XL0      -0.659000
     34 OC3        114.2160   116.4520    94.2950 oh         1 XL0      -0.665000
     35 P          113.9200   120.8670    95.5080 p5         1 XL0       1.392800
     36 C210       108.6380   108.5470   101.5370 c2         1 XL0      -0.223200
     37 C211       108.7870   108.6790   103.0230 c3         1 XL0      -0.043200
     38 C212       108.6450   107.3520   103.7610 c3         1 XL0      -0.074400
     39 C213       108.7580   107.5050   105.2720 c3         1 XL0      -0.077400
     40 C214       108.5590   106.2000   106.0280 c3         1 XL0      -0.076400
     41 C215       108.6890   106.3630   107.5390 c3         1 XL0      -0.073400
     42 C216       108.5240   105.0690   108.3310 c3         1 XL0      -0.072400
     43 C217       107.1230   104.4740   108.2640 c3         1 XL0      -0.079400
     44 C218       106.9640   103.2310   109.1280 c3         1 XL0      -0.089100
     45 C310       104.2970   108.8820   102.8340 c2         1 XL0      -0.227200
     46 C311       104.9480   108.3340   104.0670 c3         1 XL0      -0.044200
     47 C312       104.0900   108.5650   105.3170 c3         1 XL0      -0.071400
     48 C313       104.6380   107.9040   106.5880 c3         1 XL0      -0.074400
     49 C314       104.0320   106.5410   106.9130 c3         1 XL0      -0.074400
     50 C315       104.2630   105.4570   105.8670 c3         1 XL0      -0.077400
     51 C316       103.7570   104.0960   106.3230 c3         1 XL0      -0.090100
     52 H1         112.2320   118.6850    94.9060 h1         1 XL0       0.026700
     53 H2         111.0870   119.7940    95.6650 h1         1 XL0       0.026700
     54 H3         116.5010   119.4490    95.3030 h1         1 XL0       0.025700
     55 H4         115.2400   118.3340    95.8120 h1         1 XL0       0.025700
     56 H5         116.7000   117.2160    94.3400 h1         1 XL0       0.011700
     57 H6         115.2410   116.4970    92.4870 h1         1 XL0       0.031700
     58 H7         114.1690   117.8700    92.7710 h1         1 XL0       0.031700
     59 H8         111.1660   118.5020    97.7600 h1         1 XL0       0.085700
     60 H9         114.9050   116.2510    99.1660 hc         1 XL0       0.072200
     61 H10        115.0800   116.4280    97.4240 hc         1 XL0       0.072200
     62 H11        113.4030   114.6530    97.0250 hc         1 XL0       0.045700
     63 H12        114.7350   114.0800    98.0000 hc         1 XL0       0.045700
     64 H13        113.3820   114.3620   100.0690 hc         1 XL0       0.044200
     65 H14        112.0320   114.9600    99.1300 hc         1 XL0       0.044200
     66 H15        111.8530   112.8150    97.9250 hc         1 XL0       0.036200
     67 H16        113.2340   112.1780    98.7960 hc         1 XL0       0.036200
     68 H17        112.0280   112.3820   100.9440 hc         1 XL0       0.036700
     69 H18        110.6770   113.1560   100.1480 hc         1 XL0       0.036700
     70 H19        110.2420   111.0940    98.8260 hc         1 XL0       0.038700
     71 H20        111.5910   110.2920    99.6030 hc         1 XL0       0.038700
     72 H21        110.4880   110.5360   101.8200 hc         1 XL0       0.045200
     73 H22        109.1980   111.4540   101.0960 hc         1 XL0       0.045200
     74 H23        108.9100   109.1820    99.5780 ha         1 XL0       0.168000
     75 H24        110.7650   116.6890    95.3310 h1         1 XL0       0.055700
     76 H25        109.5870   117.8860    95.8880 h1         1 XL0       0.055700
     77 H26        107.9800   115.2830    98.6680 hc         1 XL0       0.071700
     78 H27        109.4020   114.2830    98.5820 hc         1 XL0       0.071700
     79 H28        108.2630   112.7510    96.9670 hc         1 XL0       0.051200
     80 H29        106.8330   113.7620    96.9900 hc         1 XL0       0.051200
     81 H30        106.5980   111.7570    98.4050 hc         1 XL0       0.040200
     82 H31        107.9650   112.2400    99.3810 hc         1 XL0       0.040200
     83 H32        106.7400   114.1880   100.2430 hc         1 XL0       0.040200
     84 H33        105.4870   113.9870    99.0380 hc         1 XL0       0.040200
     85 H34        104.6660   113.2330   101.1780 hc         1 XL0       0.035700
     86 H35        104.7640   111.8760   100.0780 hc         1 XL0       0.035700
     87 H36        106.8330   111.0790   101.1900 hc         1 XL0       0.043700
     88 H37        106.9100   112.5400   102.1490 hc         1 XL0       0.043700
     89 H38        106.0550   110.7840   103.5590 hc         1 XL0       0.043200
     90 H39        104.7840   111.9470   103.2750 hc         1 XL0       0.043200
     91 H40        103.8790   110.3350   101.4220 ha         1 XL0       0.166000
     92 H42        117.4730   118.9840    93.1010 ho         1 XL0       0.439000
     93 H43        113.3500   116.1740    93.9870 ho         1 XL0       0.439000
     94 H44        108.0520   107.7000   101.1900 ha         1 XL0       0.167000
     95 H45        109.7480   109.1380   103.2740 hc         1 XL0       0.045700
     96 H46        108.0260   109.3730   103.4030 hc         1 XL0       0.045700
     97 H47        107.6780   106.9040   103.5110 hc         1 XL0       0.038700
     98 H48        109.4070   106.6510   103.4040 hc         1 XL0       0.038700
     99 H49        109.7370   107.9290   105.5220 hc         1 XL0       0.037200
    100 H50        108.0170   108.2370   105.6140 hc         1 XL0       0.037200
    101 H51        107.5740   105.7940   105.7760 hc         1 XL0       0.037700
    102 H52        109.2880   105.4590   105.6820 hc         1 XL0       0.037700
    103 H53        109.6700   106.7950   107.7620 hc         1 XL0       0.037200
    104 H54        107.9510   107.0950   107.8880 hc         1 XL0       0.037200
    105 H55        109.2510   104.3290   107.9780 hc         1 XL0       0.036200
    106 H56        108.7740   105.2600   109.3800 hc         1 XL0       0.036200
    107 H57        106.3980   105.2330   108.5760 hc         1 XL0       0.039200
    108 H58        106.8690   104.2270   107.2300 hc         1 XL0       0.039200
    109 H59        105.9510   102.8310   109.0660 hc         1 XL0       0.029700
    110 H60        107.6500   102.4420   108.8150 hc         1 XL0       0.029700
    111 H61        107.1700   103.4490   110.1770 hc         1 XL0       0.029700
    112 H62        103.5660   108.2300   102.3640 ha         1 XL0       0.162000
    113 H63        105.1290   107.2650   103.9330 hc         1 XL0       0.043700
    114 H64        105.9280   108.7880   104.2330 hc         1 XL0       0.043700
    115 H65        104.0120   109.6450   105.4660 hc         1 XL0       0.038700
    116 H66        103.0680   108.2170   105.1340 hc         1 XL0       0.038700
    117 H67        105.7280   107.8080   106.5130 hc         1 XL0       0.038700
    118 H68        104.4590   108.5630   107.4410 hc         1 XL0       0.038700
    119 H69        104.4390   106.1980   107.8700 hc         1 XL0       0.034700
    120 H70        102.9540   106.6590   107.0720 hc         1 XL0       0.034700
    121 H71        103.7720   105.7330   104.9300 hc         1 XL0       0.039200
    122 H72        105.3330   105.3920   105.6430 hc         1 XL0       0.039200
    123 H73        103.9160   103.3320   105.5610 hc         1 XL0       0.030367
    124 H74        104.2720   103.7700   107.2290 hc         1 XL0       0.030367
    125 H75        102.6890   104.1260   106.5440 hc         1 XL0       0.030367
@<TRIPOS>BOND
     1     1     5 1   
     2     1    25 1   
     3     1    52 1   
     4     1    53 1   
     5     2     3 1   
     6     2    26 1   
     7     2    54 1   
     8     2    55 1   
     9     3     4 1   
    10     3    33 1   
    11     3    56 1   
    12     4    34 1   
    13     4    57 1   
    14     4    58 1   
    15     5    15 1   
    16     5    29 1   
    17     5    59 1   
    18     6     7 1   
    19     6    29 1   
    20     6    30 2   
    21     7     8 1   
    22     7    60 1   
    23     7    61 1   
    24     8     9 1   
    25     8    62 1   
    26     8    63 1   
    27     9    10 1   
    28     9    64 1   
    29     9    65 1   
    30    10    11 1   
    31    10    66 1   
    32    10    67 1   
    33    11    12 1   
    34    11    68 1   
    35    11    69 1   
    36    12    13 1   
    37    12    70 1   
    38    12    71 1   
    39    13    14 1   
    40    13    72 1   
    41    13    73 1   
    42    14    36 2   
    43    14    74 1   
    44    15    31 1   
    45    15    75 1   
    46    15    76 1   
    47    16    17 1   
    48    16    31 1   
    49    16    32 2   
    50    17    18 1   
    51    17    77 1   
    52    17    78 1   
    53    18    19 1   
    54    18    79 1   
    55    18    80 1   
    56    19    20 1   
    57    19    81 1   
    58    19    82 1   
    59    20    21 1   
    60    20    83 1   
    61    20    84 1   
    62    21    22 1   
    63    21    85 1   
    64    21    86 1   
    65    22    23 1   
    66    22    87 1   
    67    22    88 1   
    68    23    24 1   
    69    23    89 1   
    70    23    90 1   
    71    24    45 2   
    72    24    91 1   
    73    25    35 1   
    74    26    35 1   
    75    27    35 1   
    76    28    35 1   
    77    33    92 1   
    78    34    93 1   
    79    36    37 1   
    80    36    94 1   
    81    37    38 1   
    82    37    95 1   
    83    37    96 1   
    84    38    39 1   
    85    38    97 1   
    86    38    98 1   
    87    39    40 1   
    88    39    99 1   
    89    39   100 1   
    90    40    41 1   
    91    40   101 1   
    92    40   102 1   
    93    41    42 1   
    94    41   103 1   
    95    41   104 1   
    96    42    43 1   
    97    42   105 1   
    98    42   106 1   
    99    43    44 1   
   100    43   107 1   
   101    43   108 1   
   102    44   109 1   
   103    44   110 1   
   104    44   111 1   
   105    45    46 1   
   106    45   112 1   
   107    46    47 1   
   108    46   113 1   
   109    46   114 1   
   110    47    48 1   
   111    47   115 1   
   112    47   116 1   
   113    48    49 1   
   114    48   117 1   
   115    48   118 1   
   116    49    50 1   
   117    49   119 1   
   118    49   120 1   
   119    50    51 1   
   120    50   121 1   
   121    50   122 1   
   122    51   123 1   
   123    51   124 1   
   124    51   125 1   
@<TRIPOS>SUBSTRUCTURE
     1 XL0         1 TEMP              0 ****  ****    0 ROOT
