@<TRIPOS>MOLECULE
XL2
   44    46     1     0     0
SMALL
No Charge or Current Charge


@<TRIPOS>ATOM
      1 C01          5.4870    -0.5360    -0.1000 ca         1 XL2      -0.121000
      2 C02          5.0920    -1.8790    -0.2260 ca         1 XL2       0.151000
      3 C03          3.7340    -2.2210    -0.2500 ca         1 XL2      -0.087000
      4 C04          2.7890    -1.1920    -0.1440 ca         1 XL2      -0.193000
      5 C05          3.1500     0.1430    -0.0180 ca         1 XL2       0.173400
      6 C06          4.5240     0.5090     0.0060 ca         1 XL2      -0.097600
      7 S07          1.0500    -1.4340    -0.1520 ss         1 XL2       0.005800
      8 C08          0.9590     0.3290     0.0470 cc         1 XL2       0.653100
      9 N09          2.0800     1.0330     0.0920 nd         1 XL2      -0.609100
     10 C10          4.9770     1.9580     0.1350 c          1 XL2       0.625700
     11 O11          4.2510     2.9280    -0.0060 o          1 XL2      -0.572100
     12 N12          6.2870     2.1860     0.3900 nt         1 XL2      -0.611000
     13 F13          6.0290    -2.8470    -0.3300 f          1 XL2      -0.177000
     14 N14         -0.1890     1.0540     0.1040 nu         1 XL2      -0.901200
     15 C15         -1.5320     0.7130    -0.0270 ca         1 XL2       0.281000
     16 C16         -2.0630    -0.4200     0.6130 ca         1 XL2      -0.135000
     17 C17         -3.4240    -0.7420     0.4740 ca         1 XL2      -0.077500
     18 C18         -4.2740     0.0700    -0.3040 ca         1 XL2      -0.089300
     19 C19         -3.7410     1.2140    -0.9320 ca         1 XL2      -0.077500
     20 C20         -2.3790     1.5330    -0.7890 ca         1 XL2      -0.135000
     21 C21         -5.7600    -0.2750    -0.4590 c3         1 XL2       0.228800
     22 C22         -5.8910    -1.6030    -1.2450 c3         1 XL2      -0.089100
     23 N23         -6.4780    -0.2770     0.8510 n3         1 XL2      -0.714600
     24 C24         -6.2840     0.9780     1.6220 c3         1 XL2       0.149100
     25 C25         -7.9190    -0.6180     0.7470 c3         1 XL2       0.149100
     26 H1           6.5520    -0.3230    -0.1020 ha         1 XL2       0.135000
     27 H2           3.4270    -3.2600    -0.3480 ha         1 XL2       0.142000
     28 H3           6.9230     1.4170     0.5280 hn         1 XL2       0.314500
     29 H4           6.6110     3.1390     0.4700 hn         1 XL2       0.314500
     30 H5           0.0310     2.0370    -0.0280 hn         1 XL2       0.519000
     31 H6          -1.4290    -1.0440     1.2350 ha         1 XL2       0.125500
     32 H7          -3.8240    -1.6180     0.9810 ha         1 XL2       0.125000
     33 H8          -4.3820     1.8580    -1.5310 ha         1 XL2       0.125000
     34 H9          -1.9820     2.4170    -1.2810 ha         1 XL2       0.125500
     35 H10         -6.2100     0.5030    -1.0920 h1         1 XL2       0.025700
     36 H11         -5.2540    -1.5800    -2.1370 hc         1 XL2       0.042367
     37 H12         -5.5860    -2.4560    -0.6290 hc         1 XL2       0.042367
     38 H13         -6.9200    -1.7660    -1.5830 hc         1 XL2       0.042367
     39 H15         -6.6680     1.8420     1.0640 h1         1 XL2       0.032033
     40 H16         -6.8130     0.9280     2.5830 h1         1 XL2       0.032033
     41 H17         -5.2230     1.1530     1.8420 h1         1 XL2       0.032033
     42 H18         -8.4420     0.0860     0.0850 h1         1 XL2       0.032033
     43 H19         -8.0630    -1.6340     0.3580 h1         1 XL2       0.032033
     44 H20         -8.3990    -0.5790     1.7340 h1         1 XL2       0.032033
@<TRIPOS>BOND
     1     1     2 ar  
     2     1     6 ar  
     3     1    26 1   
     4     2     3 ar  
     5     2    13 1   
     6     3     4 ar  
     7     3    27 1   
     8     4     5 ar  
     9     4     7 1   
    10     5     6 ar  
    11     5     9 1   
    12     6    10 1   
    13     7     8 1   
    14     8     9 2   
    15     8    14 1   
    16    10    11 2   
    17    10    12 1   
    18    12    28 1   
    19    12    29 1   
    20    14    15 1   
    21    14    30 1   
    22    15    16 ar  
    23    15    20 ar  
    24    16    17 ar  
    25    16    31 1   
    26    17    18 ar  
    27    17    32 1   
    28    18    19 ar  
    29    18    21 1   
    30    19    20 ar  
    31    19    33 1   
    32    20    34 1   
    33    21    22 1   
    34    21    23 1   
    35    21    35 1   
    36    22    36 1   
    37    22    37 1   
    38    22    38 1   
    39    23    24 1   
    40    23    25 1   
    41    24    39 1   
    42    24    40 1   
    43    24    41 1   
    44    25    42 1   
    45    25    43 1   
    46    25    44 1   
@<TRIPOS>SUBSTRUCTURE
     1 XL2         1 TEMP              0 ****  ****    0 ROOT
