@<TRIPOS>MOLECULE
XL2
   44    46     1     0     0
SMALL
abcg2


@<TRIPOS>ATOM
      1 C01          5.2600    -0.7260    -0.1540 ca         1 XL2      -0.121000
      2 C02          4.7060    -1.9810    -0.3420 ca         1 XL2       0.151000
      3 C03          3.3460    -2.1910    -0.4420 ca         1 XL2      -0.087000
      4 C04          2.5420    -1.0680    -0.3470 ca         1 XL2      -0.193000
      5 C05          3.0530     0.2290    -0.1680 ca         1 XL2       0.173400
      6 C06          4.4390     0.3930    -0.0710 ca         1 XL2      -0.097600
      7 S07          0.8070    -1.0090    -0.3930 ss         1 XL2       0.005800
      8 C08          0.9180     0.7350    -0.1550 cc         1 XL2       0.653100
      9 N09          2.1130     1.2180    -0.0550 nd         1 XL2      -0.609100
     10 C10          5.0400     1.7580     0.0610 c          1 XL2       0.625700
     11 O11          4.6650     2.6900    -0.6310 o          1 XL2      -0.572100
     12 N12          6.0240     1.8530     0.9670 nt         1 XL2      -0.611000
     13 F13          5.5290    -3.0380    -0.4330 f          1 XL2      -0.177000
     14 N14         -0.1890     1.5000    -0.1240 nu         1 XL2      -0.901200
     15 C15         -1.5190     1.0500    -0.1780 ca         1 XL2       0.281000
     16 C16         -1.9760     0.0340     0.6590 ca         1 XL2      -0.135000
     17 C17         -3.2940    -0.3850     0.5840 ca         1 XL2      -0.077500
     18 C18         -4.1930     0.2190    -0.2910 ca         1 XL2      -0.089300
     19 C19         -3.7330     1.2550    -1.0960 ca         1 XL2      -0.077500
     20 C20         -2.4090     1.6640    -1.0540 ca         1 XL2      -0.135000
     21 C21         -5.6200    -0.2730    -0.3930 c3         1 XL2       0.228800
     22 C22         -5.6280    -1.5920    -1.1650 c3         1 XL2      -0.089100
     23 N23         -6.2090    -0.3970     0.9350 n3         1 XL2      -0.714600
     24 C24         -6.2960     0.8940     1.5890 c3         1 XL2       0.149100
     25 C25         -7.5120    -1.0320     0.9270 c3         1 XL2       0.149100
     26 H1           6.3370    -0.6260    -0.0980 ha         1 XL2       0.135000
     27 H2           2.9410    -3.1830    -0.5870 ha         1 XL2       0.142000
     28 H3           6.2490     1.0980     1.5930 hn         1 XL2       0.314500
     29 H4           6.5030     2.7280     1.1040 hn         1 XL2       0.314500
     30 H5          -0.0240     2.4930    -0.2060 hn         1 XL2       0.519000
     31 H6          -1.3170    -0.4150     1.3920 ha         1 XL2       0.125500
     32 H7          -3.6380    -1.1730     1.2430 ha         1 XL2       0.125000
     33 H8          -4.4170     1.7490    -1.7760 ha         1 XL2       0.125000
     34 H9          -2.0650     2.4640    -1.6970 ha         1 XL2       0.125500
     35 H10         -6.1880     0.4610    -0.9950 h1         1 XL2       0.025700
     36 H11         -5.0680    -1.4760    -2.0930 hc         1 XL2       0.042367
     37 H12         -5.1570    -2.3880    -0.5870 hc         1 XL2       0.042367
     38 H13         -6.6350    -1.9090    -1.4330 hc         1 XL2       0.042367
     39 H15         -6.9460     1.6050     1.0530 h1         1 XL2       0.032033
     40 H16         -6.6960     0.7720     2.5960 h1         1 XL2       0.032033
     41 H17         -5.3110     1.3520     1.6810 h1         1 XL2       0.032033
     42 H18         -8.2470    -0.5140     0.2910 h1         1 XL2       0.032033
     43 H19         -7.4490    -2.0660     0.5930 h1         1 XL2       0.032033
     44 H20         -7.9090    -1.0460     1.9430 h1         1 XL2       0.032033
@<TRIPOS>BOND
     1     1     2 ar  
     2     1     6 ar  
     3     1    26 1   
     4     2     3 ar  
     5     2    13 1   
     6     3     4 ar  
     7     3    27 1   
     8     4     5 ar  
     9     4     7 1   
    10     5     6 ar  
    11     5     9 1   
    12     6    10 1   
    13     7     8 1   
    14     8     9 2   
    15     8    14 1   
    16    10    11 2   
    17    10    12 1   
    18    12    28 1   
    19    12    29 1   
    20    14    15 1   
    21    14    30 1   
    22    15    16 ar  
    23    15    20 ar  
    24    16    17 ar  
    25    16    31 1   
    26    17    18 ar  
    27    17    32 1   
    28    18    19 ar  
    29    18    21 1   
    30    19    20 ar  
    31    19    33 1   
    32    20    34 1   
    33    21    22 1   
    34    21    23 1   
    35    21    35 1   
    36    22    36 1   
    37    22    37 1   
    38    22    38 1   
    39    23    24 1   
    40    23    25 1   
    41    24    39 1   
    42    24    40 1   
    43    24    41 1   
    44    25    42 1   
    45    25    43 1   
    46    25    44 1   
@<TRIPOS>SUBSTRUCTURE
     1 XL2         1 TEMP              0 ****  ****    0 ROOT
