@<TRIPOS>MOLECULE
XL3
   12    11     1     0     0
SMALL
bcc


@<TRIPOS>ATOM
      1 CA           2.5280    -0.1060     0.0160 c3         1 XL3      -0.090100
      2 CB           1.1210     0.4760     0.0110 c3         1 XL3      -0.069400
      3 CC           0.0650    -0.6180     0.0100 c3         1 XL3       0.039700
      4 SG          -1.5960     0.1400    -0.0070 sh         1 XL3      -0.417900
      5 HA           3.2780     0.6840     0.0240 hc         1 XL3       0.034700
      6 HAA          2.6930    -0.7310     0.8950 hc         1 XL3       0.034700
      7 HAB          2.7040    -0.7230    -0.8670 hc         1 XL3       0.034700
      8 HB           0.9830     1.1180     0.8850 hc         1 XL3       0.053700
      9 HBA          0.9890     1.1140    -0.8680 hc         1 XL3       0.053700
     10 HC           0.1780    -1.2560    -0.8670 h1         1 XL3       0.056200
     11 HCA          0.1640    -1.2420     0.8980 h1         1 XL3       0.056200
     12 HSG         -2.3120    -0.9890     0.0250 hs         1 XL3       0.211800
@<TRIPOS>BOND
     1     1     2 1   
     2     1     5 1   
     3     1     6 1   
     4     1     7 1   
     5     2     3 1   
     6     2     8 1   
     7     2     9 1   
     8     3     4 1   
     9     3    10 1   
    10     3    11 1   
    11     4    12 1   
@<TRIPOS>SUBSTRUCTURE
     1 XL3         1 TEMP              0 ****  ****    0 ROOT
