@<TRIPOS>MOLECULE
XL3
   12    11     1     0     0
SMALL
No Charge or Current Charge


@<TRIPOS>ATOM
      1 CA           2.5600    -0.1130     0.0170 c3         1 XL3      -0.090100
      2 CB           1.1390     0.4840     0.0110 c3         1 XL3      -0.069400
      3 CC           0.0340    -0.5890     0.0120 c3         1 XL3       0.087600
      4 SG          -1.6750     0.1270     0.0060 sh         1 XL3      -0.465800
      5 HA           3.3110     0.6860     0.0150 hc         1 XL3       0.034700
      6 HAA          2.7180    -0.7310     0.9090 hc         1 XL3       0.034700
      7 HAB          2.7220    -0.7370    -0.8710 hc         1 XL3       0.034700
      8 HB           1.0160     1.1280     0.8910 hc         1 XL3       0.053700
      9 HBA          1.0200     1.1220    -0.8730 hc         1 XL3       0.053700
     10 HC           0.1440    -1.2280    -0.8740 h1         1 XL3       0.056200
     11 HCA          0.1400    -1.2220     0.9030 h1         1 XL3       0.056200
     12 HSG         -2.3320    -1.0600     0.0080 hs         1 XL3       0.211800
@<TRIPOS>BOND
     1     1     2 1   
     2     1     5 1   
     3     1     6 1   
     4     1     7 1   
     5     2     3 1   
     6     2     8 1   
     7     2     9 1   
     8     3     4 1   
     9     3    10 1   
    10     3    11 1   
    11     4    12 1   
@<TRIPOS>SUBSTRUCTURE
     1 XL3         1 TEMP              0 ****  ****    0 ROOT
