@<TRIPOS>MOLECULE
XL4
   27    28     1     0     0
SMALL
abcg2


@<TRIPOS>ATOM
      1 C1          23.7860    42.9740    -0.6080 c3         1 XL4      -0.083100
      2 C2          24.0690    44.1150     0.3790 c3         1 XL4       0.010500
      3 C3          25.5750    44.4070     0.4430 c3         1 XL4       0.157800
      4 N1          25.8770    45.4220     1.4580 n8         1 XL4      -1.006200
      5 C4          23.2710    45.3510     0.0700 cc         1 XL4      -0.138400
      6 C5          22.3540    45.9360     0.9040 cd         1 XL4      -0.148100
      7 N2          21.8200    47.0620     0.3160 na         1 XL4      -0.236700
      8 C6          22.3870    47.2340    -0.9220 ca         1 XL4      -0.047200
      9 C7          22.1730    48.2260    -1.8800 ca         1 XL4      -0.130000
     10 C8          22.9020    48.1520    -3.0560 ca         1 XL4      -0.092000
     11 C9          23.8240    47.1110    -3.2740 ca         1 XL4      -0.144000
     12 C10         24.0340    46.1270    -2.3220 ca         1 XL4      -0.064000
     13 C11         23.3140    46.1710    -1.1170 ca         1 XL4      -0.095800
     14 H1          24.3390    42.0750    -0.3250 hc         1 XL4       0.034700
     15 H2          22.7220    42.7320    -0.6210 hc         1 XL4       0.034700
     16 H3          24.0810    43.2450    -1.6230 hc         1 XL4       0.034700
     17 H4          23.7680    43.7810     1.3770 hc         1 XL4       0.057700
     18 H5          26.0960    43.4860     0.7170 h1         1 XL4       0.027200
     19 H6          25.9270    44.6880    -0.5580 h1         1 XL4       0.027200
     20 H7          26.8720    45.6180     1.4630 hn         1 XL4       0.395500
     21 H8          25.4190    46.2930     1.2050 hn         1 XL4       0.395500
     22 H10         22.0370    45.6320     1.8890 h4         1 XL4       0.215000
     23 H11         21.1210    47.6580     0.7270 hn         1 XL4       0.350000
     24 H12         21.4630    49.0250    -1.7060 ha         1 XL4       0.112000
     25 H13         22.7610    48.9070    -3.8190 ha         1 XL4       0.110000
     26 H14         24.3760    47.0810    -4.2050 ha         1 XL4       0.110000
     27 H15         24.7470    45.3360    -2.5110 ha         1 XL4       0.112000
@<TRIPOS>BOND
     1     1     2 1   
     2     1    14 1   
     3     1    15 1   
     4     1    16 1   
     5     2     3 1   
     6     2     5 1   
     7     2    17 1   
     8     3     4 1   
     9     3    18 1   
    10     3    19 1   
    11     4    20 1   
    12     4    21 1   
    13     5     6 2   
    14     5    13 1   
    15     6     7 1   
    16     6    22 1   
    17     7     8 1   
    18     7    23 1   
    19     8     9 ar  
    20     8    13 ar  
    21     9    10 ar  
    22     9    24 1   
    23    10    11 ar  
    24    10    25 1   
    25    11    12 ar  
    26    11    26 1   
    27    12    13 ar  
    28    12    27 1   
@<TRIPOS>SUBSTRUCTURE
     1 XL4         1 TEMP              0 ****  ****    0 ROOT
