@<TRIPOS>MOLECULE
XL4
   27    28     1     0     0
SMALL
No Charge or Current Charge


@<TRIPOS>ATOM
      1 C1          23.7460    42.9860    -0.6220 c3         1 XL4      -0.083100
      2 C2          24.0810    44.1250     0.3660 c3         1 XL4       0.010500
      3 C3          25.6080    44.4020     0.4290 c3         1 XL4       0.157800
      4 N1          25.9630    45.3970     1.4640 n8         1 XL4      -1.006200
      5 C4          23.2630    45.3690     0.0830 cc         1 XL4      -0.138400
      6 C5          22.3080    45.9360     0.9250 cd         1 XL4      -0.148100
      7 N2          21.7510    47.0860     0.3160 na         1 XL4      -0.236700
      8 C6          22.3790    47.2090    -0.9080 ca         1 XL4      -0.047200
      9 C7          22.1650    48.1970    -1.8790 ca         1 XL4      -0.130000
     10 C8          22.9200    48.1360    -3.0690 ca         1 XL4      -0.092000
     11 C9          23.8630    47.1000    -3.2610 ca         1 XL4      -0.144000
     12 C10         24.0570    46.1190    -2.2660 ca         1 XL4      -0.064000
     13 C11         23.2900    46.2060    -1.0920 ca         1 XL4      -0.095800
     14 H1          24.2690    42.0640    -0.3400 hc         1 XL4       0.034700
     15 H2          22.6690    42.7790    -0.6180 hc         1 XL4       0.034700
     16 H3          24.0410    43.2430    -1.6450 hc         1 XL4       0.034700
     17 H4          23.7920    43.7580     1.3590 hc         1 XL4       0.057700
     18 H5          26.1460    43.4690     0.6470 h1         1 XL4       0.027200
     19 H6          25.9560    44.7750    -0.5430 h1         1 XL4       0.027200
     20 H7          26.9460    45.6690     1.3430 hn         1 XL4       0.395500
     21 H8          25.4440    46.2600     1.2620 hn         1 XL4       0.395500
     22 H10         21.9880    45.6030     1.9090 h4         1 XL4       0.215000
     23 H11         21.0340    47.6960     0.6990 hn         1 XL4       0.350000
     24 H12         21.4370    48.9900    -1.7220 ha         1 XL4       0.112000
     25 H13         22.7760    48.8890    -3.8410 ha         1 XL4       0.110000
     26 H14         24.4420    47.0590    -4.1810 ha         1 XL4       0.110000
     27 H15         24.7820    45.3230    -2.4140 ha         1 XL4       0.112000
@<TRIPOS>BOND
     1     1     2 1   
     2     1    14 1   
     3     1    15 1   
     4     1    16 1   
     5     2     3 1   
     6     2     5 1   
     7     2    17 1   
     8     3     4 1   
     9     3    18 1   
    10     3    19 1   
    11     4    20 1   
    12     4    21 1   
    13     5     6 2   
    14     5    13 1   
    15     6     7 1   
    16     6    22 1   
    17     7     8 1   
    18     7    23 1   
    19     8     9 ar  
    20     8    13 ar  
    21     9    10 ar  
    22     9    24 1   
    23    10    11 ar  
    24    10    25 1   
    25    11    12 ar  
    26    11    26 1   
    27    12    13 ar  
    28    12    27 1   
@<TRIPOS>SUBSTRUCTURE
     1 XL4         1 TEMP              0 ****  ****    0 ROOT
