@<TRIPOS>MOLECULE
XL5
   54    56     1     0     0
SMALL
abcg2


@<TRIPOS>ATOM
      1 C1           5.6850    -0.3610    -0.4120 ca         1 XL5       0.190100
      2 C2           4.3360    -0.6690    -0.6070 ca         1 XL5       0.061000
      3 C3           3.3410     0.2790    -0.3960 ca         1 XL5      -0.006300
      4 C4           3.7170     1.5430     0.0480 ca         1 XL5       0.061000
      5 C5           5.0570     1.8750     0.2490 ca         1 XL5       0.190100
      6 C6           6.0360     0.9150     0.0150 ca         1 XL5      -0.275000
      7 O1           6.5640    -1.3370    -0.6470 os         1 XL5      -0.319600
      8 O2           5.3150     3.1170     0.6650 os         1 XL5      -0.319600
      9 C7           7.9430    -1.0800    -0.4420 c3         1 XL5       0.146900
     10 C8           6.6590     3.4900     0.9180 c3         1 XL5       0.146900
     11 CL1          3.9470    -2.2790    -1.1090 cl         1 XL5      -0.170000
     12 CL2          2.5250     2.7510     0.3770 cl         1 XL5      -0.170000
     13 C9           1.8910    -0.0460    -0.5920 c3         1 XL5       0.203900
     14 O3           1.3660    -0.3580     0.6890 os         1 XL5      -0.317100
     15 C10          0.0390    -0.5760     0.7780 ca         1 XL5      -0.010900
     16 C11         -0.5080    -0.7430     2.0500 ca         1 XL5       0.095400
     17 N1          -1.7910    -0.9730     2.2440 nb         1 XL5      -0.195000
     18 C12         -2.5620    -1.0390     1.1580 ca         1 XL5       0.331900
     19 N2          -2.1480    -0.8930    -0.0880 nb         1 XL5      -0.195000
     20 C13         -0.8540    -0.6640    -0.2790 ca         1 XL5       0.095400
     21 N3          -3.9030    -1.2410     1.3770 nu         1 XL5      -0.944900
     22 C14         -4.7570    -1.6550     0.3350 ca         1 XL5       0.160000
     23 C15         -5.6220    -0.7340    -0.2790 ca         1 XL5       0.039000
     24 C16         -6.4610    -1.1710    -1.3070 ca         1 XL5      -0.157000
     25 C17         -6.4250    -2.4980    -1.7090 ca         1 XL5      -0.053000
     26 C18         -5.5730    -3.4200    -1.1200 ca         1 XL5      -0.182000
     27 C19         -4.7530    -2.9670    -0.1080 ca         1 XL5       0.196000
     28 N4          -5.5700     0.5670     0.2030 ns         1 XL5      -0.145000
     29 C20         -6.2120     1.6840    -0.2390 c          1 XL5       0.608100
     30 C21         -5.8350     2.9310     0.5320 c3         1 XL5      -0.159400
     31 C22         -6.5830     4.1720     0.0840 c3         1 XL5      -0.076100
     32 O4          -7.0030     1.6900    -1.1630 o          1 XL5      -0.577100
     33 F1          -3.9050    -3.8180     0.4810 f          1 XL5      -0.175000
     34 H1           7.0760     1.1610     0.1670 ha         1 XL5       0.128000
     35 H2           8.4640    -2.0020    -0.6870 h1         1 XL5       0.046033
     36 H3           8.3080    -0.2830    -1.0950 h1         1 XL5       0.046033
     37 H4           8.1540    -0.8170     0.5970 h1         1 XL5       0.046033
     38 H5           6.6280     4.5220     1.2570 h1         1 XL5       0.046033
     39 H6           7.1080     2.8730     1.6990 h1         1 XL5       0.046033
     40 H7           7.2730     3.4320     0.0160 h1         1 XL5       0.046033
     41 H8           1.3670     0.8100    -1.0260 h1         1 XL5       0.057200
     42 H9           1.7680    -0.8870    -1.2790 h1         1 XL5       0.057200
     43 H10          0.1270    -0.6860     2.9280 h4         1 XL5       0.033600
     44 H11         -0.5390    -0.5480    -1.3100 h4         1 XL5       0.033600
     45 H12         -4.1470    -1.5160     2.3170 hn         1 XL5       0.507000
     46 H13         -7.1380    -0.4900    -1.7920 ha         1 XL5       0.154000
     47 H14         -7.0820    -2.8190    -2.5070 ha         1 XL5       0.119000
     48 H15         -5.5440    -4.4530    -1.4370 ha         1 XL5       0.135000
     49 H16         -4.9420     0.6860     0.9870 hn         1 XL5       0.168000
     50 H17         -6.0030     2.7460     1.5970 hc         1 XL5       0.060200
     51 H18         -4.7550     3.0790     0.4280 hc         1 XL5       0.060200
     52 H19         -6.2520     5.0310     0.6650 hc         1 XL5       0.044033
     53 H20         -6.4040     4.3940    -0.9670 hc         1 XL5       0.044033
     54 H21         -7.6580     4.0690     0.2290 hc         1 XL5       0.044033
@<TRIPOS>BOND
     1     1     2 ar  
     2     1     6 ar  
     3     1     7 1   
     4     2     3 ar  
     5     2    11 1   
     6     3     4 ar  
     7     3    13 1   
     8     4     5 ar  
     9     4    12 1   
    10     5     6 ar  
    11     5     8 1   
    12     6    34 1   
    13     7     9 1   
    14     8    10 1   
    15     9    35 1   
    16     9    36 1   
    17     9    37 1   
    18    10    38 1   
    19    10    39 1   
    20    10    40 1   
    21    13    14 1   
    22    13    41 1   
    23    13    42 1   
    24    14    15 1   
    25    15    16 ar  
    26    15    20 ar  
    27    16    17 ar  
    28    16    43 1   
    29    17    18 ar  
    30    18    19 ar  
    31    18    21 1   
    32    19    20 ar  
    33    20    44 1   
    34    21    22 1   
    35    21    45 1   
    36    22    23 ar  
    37    22    27 ar  
    38    23    24 ar  
    39    23    28 1   
    40    24    25 ar  
    41    24    46 1   
    42    25    26 ar  
    43    25    47 1   
    44    26    27 ar  
    45    26    48 1   
    46    27    33 1   
    47    28    29 1   
    48    28    49 1   
    49    29    30 1   
    50    29    32 2   
    51    30    31 1   
    52    30    50 1   
    53    30    51 1   
    54    31    52 1   
    55    31    53 1   
    56    31    54 1   
@<TRIPOS>SUBSTRUCTURE
     1 XL5         1 TEMP              0 ****  ****    0 ROOT
