@<TRIPOS>MOLECULE
XL5
   54    56     1     0     0
SMALL
No Charge or Current Charge


@<TRIPOS>ATOM
      1 C1           5.4930    -0.0330    -0.2350 ca         1 XL5       0.190100
      2 C2           4.1510    -0.4010    -0.4740 ca         1 XL5       0.061000
      3 C3           3.1090     0.5440    -0.3280 ca         1 XL5      -0.006300
      4 C4           3.4280     1.8610     0.0790 ca         1 XL5       0.061000
      5 C5           4.7690     2.2330     0.3190 ca         1 XL5       0.190100
      6 C6           5.8010     1.2860     0.1580 ca         1 XL5      -0.275000
      7 O1           6.4770    -0.9930    -0.3950 os         1 XL5      -0.319600
      8 O2           5.0300     3.5340     0.7130 os         1 XL5      -0.319600
      9 C7           7.8730    -0.7210    -0.1740 c3         1 XL5       0.146900
     10 C8           6.3590     4.0130     0.9840 c3         1 XL5       0.146900
     11 Cl1          3.7950    -2.0720    -0.9480 cl         1 XL5      -0.170000
     12 Cl2          2.1510     3.0700     0.3100 cl         1 XL5      -0.170000
     13 C9           1.6550     0.1440    -0.5870 c3         1 XL5       0.203900
     14 O3           1.0850    -0.3300     0.6480 os         1 XL5      -0.317100
     15 C10         -0.2300    -0.7480     0.7280 ca         1 XL5      -0.010900
     16 C11         -0.7410    -1.1960     1.9610 ca         1 XL5       0.095400
     17 N1          -2.0200    -1.6070     2.0890 nb         1 XL5      -0.195000
     18 C12         -2.7830    -1.5610     0.9810 ca         1 XL5       0.331900
     19 N2          -2.3910    -1.1660    -0.2480 nb         1 XL5      -0.195000
     20 C13         -1.1130    -0.7540    -0.3750 ca         1 XL5       0.095400
     21 N3          -4.0930    -2.0040     1.1430 nu         1 XL5      -0.944900
     22 C14         -5.2230    -2.0460     0.2820 ca         1 XL5       0.160000
     23 C15         -5.6600    -0.8990    -0.4400 ca         1 XL5       0.039000
     24 C16         -6.7960    -0.9960    -1.2780 ca         1 XL5      -0.157000
     25 C17         -7.4990    -2.2050    -1.4010 ca         1 XL5      -0.053000
     26 C18         -7.0870    -3.3310    -0.6760 ca         1 XL5      -0.182000
     27 C19         -5.9660    -3.2500     0.1630 ca         1 XL5       0.196000
     28 N4          -4.9650     0.3270    -0.2450 ns         1 XL5      -0.145000
     29 C20         -5.0190     1.5560    -0.8800 c          1 XL5       0.608100
     30 C21         -4.0270     2.5890    -0.3270 c3         1 XL5      -0.159400
     31 C22         -4.7390     3.6840     0.4980 c3         1 XL5      -0.076100
     32 O4          -5.7500     1.8160    -1.8280 o          1 XL5      -0.577100
     33 F1          -5.5940    -4.3530     0.8570 f          1 XL5      -0.175000
     34 H1           6.8300     1.5700     0.3420 ha         1 XL5       0.128000
     35 H2           8.4680    -1.6240    -0.3590 h1         1 XL5       0.046033
     36 H3           8.2290     0.0650    -0.8520 h1         1 XL5       0.046033
     37 H4           8.0500    -0.4040     0.8610 h1         1 XL5       0.046033
     38 H5           6.3290     5.0690     1.2790 h1         1 XL5       0.046033
     39 H6           6.8190     3.4460     1.8030 h1         1 XL5       0.046033
     40 H7           6.9950     3.9280     0.0940 h1         1 XL5       0.046033
     41 H8           1.0880     1.0000    -0.9710 h1         1 XL5       0.057200
     42 H9           1.6040    -0.6330    -1.3590 h1         1 XL5       0.057200
     43 H10         -0.1220    -1.2250     2.8560 h4         1 XL5       0.033600
     44 H11         -0.8100    -0.4310    -1.3690 h4         1 XL5       0.033600
     45 H12         -4.1860    -2.6110     1.9620 hn         1 XL5       0.507000
     46 H13         -7.1650    -0.1380    -1.8300 ha         1 XL5       0.154000
     47 H14         -8.3730    -2.2640    -2.0470 ha         1 XL5       0.119000
     48 H15         -7.6350    -4.2660    -0.7590 ha         1 XL5       0.135000
     49 H16         -4.2790     0.2740     0.4970 hn         1 XL5       0.168000
     50 H17         -3.2910     2.0980     0.3210 hc         1 XL5       0.060200
     51 H18         -3.5150     3.0720    -1.1680 hc         1 XL5       0.060200
     52 H19         -4.0120     4.4110     0.8800 hc         1 XL5       0.044033
     53 H20         -5.4690     4.2240    -0.1180 hc         1 XL5       0.044033
     54 H21         -5.2670     3.2450     1.3540 hc         1 XL5       0.044033
@<TRIPOS>BOND
     1     1     2 ar  
     2     1     6 ar  
     3     1     7 1   
     4     2     3 ar  
     5     2    11 1   
     6     3     4 ar  
     7     3    13 1   
     8     4     5 ar  
     9     4    12 1   
    10     5     6 ar  
    11     5     8 1   
    12     6    34 1   
    13     7     9 1   
    14     8    10 1   
    15     9    35 1   
    16     9    36 1   
    17     9    37 1   
    18    10    38 1   
    19    10    39 1   
    20    10    40 1   
    21    13    14 1   
    22    13    41 1   
    23    13    42 1   
    24    14    15 1   
    25    15    16 ar  
    26    15    20 ar  
    27    16    17 ar  
    28    16    43 1   
    29    17    18 ar  
    30    18    19 ar  
    31    18    21 1   
    32    19    20 ar  
    33    20    44 1   
    34    21    22 1   
    35    21    45 1   
    36    22    23 ar  
    37    22    27 ar  
    38    23    24 ar  
    39    23    28 1   
    40    24    25 ar  
    41    24    46 1   
    42    25    26 ar  
    43    25    47 1   
    44    26    27 ar  
    45    26    48 1   
    46    27    33 1   
    47    28    29 1   
    48    28    49 1   
    49    29    30 1   
    50    29    32 2   
    51    30    31 1   
    52    30    50 1   
    53    30    51 1   
    54    31    52 1   
    55    31    53 1   
    56    31    54 1   
@<TRIPOS>SUBSTRUCTURE
     1 XL5         1 TEMP              0 ****  ****    0 ROOT
