@<TRIPOS>MOLECULE
XL6
   57    59     1     0     0
SMALL
No Charge or Current Charge


@<TRIPOS>ATOM
      1 C1          -5.6220     0.1170     0.2970 ca         1 XL6       0.190100
      2 C2          -4.2860    -0.2710     0.5370 ca         1 XL6       0.061000
      3 C3          -3.2330     0.6660     0.4210 ca         1 XL6      -0.006300
      4 C4          -3.5350     1.9960     0.0440 ca         1 XL6       0.061000
      5 C5          -4.8700     2.3880    -0.1970 ca         1 XL6       0.190100
      6 C6          -5.9130     1.4490    -0.0670 ca         1 XL6      -0.276000
      7 O1          -6.6180    -0.8360     0.4260 os         1 XL6      -0.319600
      8 O2          -5.1140     3.7010    -0.5600 os         1 XL6      -0.319600
      9 C7          -8.0080    -0.5440     0.2010 c3         1 XL6       0.147900
     10 C8          -6.4360     4.2010    -0.8300 c3         1 XL6       0.147900
     11 Cl1         -3.9510    -1.9570     0.9730 cl         1 XL6      -0.170000
     12 Cl2         -2.2440     3.1960    -0.1480 cl         1 XL6      -0.170000
     13 C9          -1.7850     0.2440     0.6810 c3         1 XL6       0.203900
     14 O3          -1.2110    -0.2080    -0.5600 os         1 XL6      -0.318100
     15 C10          0.0990    -0.6390    -0.6410 ca         1 XL6      -0.019900
     16 C11          0.6140    -1.0650    -1.8790 ca         1 XL6       0.095900
     17 N1           1.8890    -1.4890    -2.0080 nb         1 XL6      -0.201500
     18 C12          2.6430    -1.4780    -0.8940 ca         1 XL6       0.337900
     19 N2           2.2470    -1.1060     0.3410 nb         1 XL6      -0.201500
     20 C13          0.9740    -0.6820     0.4690 ca         1 XL6       0.095900
     21 N3           3.9470    -1.9310    -1.0560 nu         1 XL6      -0.956900
     22 C14          5.0540    -2.0190    -0.1860 ca         1 XL6       0.250000
     23 C15          5.5170    -0.8850     0.5370 ca         1 XL6      -0.014000
     24 C16          6.6380    -1.0170     1.3870 ca         1 XL6      -0.102000
     25 C17          7.2930    -2.2500     1.5140 ca         1 XL6      -0.097000
     26 C18          6.8490    -3.3620     0.7880 ca         1 XL6      -0.116000
     27 C19          5.7370    -3.2570    -0.0690 ca         1 XL6      -0.078300
     28 C20          5.2810    -4.4940    -0.8420 c3         1 XL6      -0.048800
     29 N4           4.8590     0.3630     0.3380 ns         1 XL6      -0.145000
     30 C21          4.9530     1.5950     0.9660 c          1 XL6       0.608100
     31 C22          3.9900     2.6540     0.4090 c3         1 XL6      -0.158400
     32 C23          4.7320     3.7200    -0.4280 c3         1 XL6      -0.080100
     33 O4           5.6970     1.8390     1.9090 o          1 XL6      -0.582100
     34 H1          -6.9380     1.7480    -0.2510 ha         1 XL6       0.128000
     35 H2          -8.1740    -0.1990    -0.8270 h1         1 XL6       0.046200
     36 H3          -8.6150    -1.4440     0.3590 h1         1 XL6       0.046200
     37 H4          -8.3620     0.2290     0.8950 h1         1 XL6       0.046200
     38 H5          -7.0790     4.1010     0.0540 h1         1 XL6       0.046200
     39 H6          -6.3920     5.2640    -1.0980 h1         1 XL6       0.046200
     40 H7          -6.8960     3.6590    -1.6660 h1         1 XL6       0.046200
     41 H8          -1.2120     1.0850     1.0890 h1         1 XL6       0.057200
     42 H9          -1.7480    -0.5510     1.4360 h1         1 XL6       0.057200
     43 H10          0.0020    -1.0660    -2.7800 h4         1 XL6       0.035100
     44 H11          0.6670    -0.3780     1.4680 h4         1 XL6       0.035100
     45 H12          4.0540    -2.4910    -1.9030 hn         1 XL6       0.510000
     46 H13          7.0290    -0.1730     1.9460 ha         1 XL6       0.136000
     47 H14          8.1570    -2.3410     2.1690 ha         1 XL6       0.116000
     48 H15          7.3740    -4.3100     0.8910 ha         1 XL6       0.114000
     49 H16          4.2280    -4.7230    -0.6370 hc         1 XL6       0.043700
     50 H17          5.3920    -4.3480    -1.9230 hc         1 XL6       0.043700
     51 H18          5.8640    -5.3830    -0.5710 hc         1 XL6       0.043700
     52 H19          4.1690     0.3280    -0.4010 hn         1 XL6       0.154000
     53 H20          3.2370     2.1800    -0.2330 hc         1 XL6       0.056200
     54 H21          3.4960     3.1590     1.2480 hc         1 XL6       0.056200
     55 H22          5.4810     4.2420     0.1810 hc         1 XL6       0.042367
     56 H23          5.2430     3.2580    -1.2820 hc         1 XL6       0.042367
     57 H24          4.0250     4.4650    -0.8130 hc         1 XL6       0.042367
@<TRIPOS>BOND
     1     1     2 ar  
     2     1     6 ar  
     3     1     7 1   
     4     2     3 ar  
     5     2    11 1   
     6     3     4 ar  
     7     3    13 1   
     8     4     5 ar  
     9     4    12 1   
    10     5     6 ar  
    11     5     8 1   
    12     6    34 1   
    13     7     9 1   
    14     8    10 1   
    15     9    35 1   
    16     9    36 1   
    17     9    37 1   
    18    10    38 1   
    19    10    39 1   
    20    10    40 1   
    21    13    14 1   
    22    13    41 1   
    23    13    42 1   
    24    14    15 1   
    25    15    16 ar  
    26    15    20 ar  
    27    16    17 ar  
    28    16    43 1   
    29    17    18 ar  
    30    18    19 ar  
    31    18    21 1   
    32    19    20 ar  
    33    20    44 1   
    34    21    22 1   
    35    21    45 1   
    36    22    23 ar  
    37    22    27 ar  
    38    23    24 ar  
    39    23    29 1   
    40    24    25 ar  
    41    24    46 1   
    42    25    26 ar  
    43    25    47 1   
    44    26    27 ar  
    45    26    48 1   
    46    27    28 1   
    47    28    49 1   
    48    28    50 1   
    49    28    51 1   
    50    29    30 1   
    51    29    52 1   
    52    30    31 1   
    53    30    33 2   
    54    31    32 1   
    55    31    53 1   
    56    31    54 1   
    57    32    55 1   
    58    32    56 1   
    59    32    57 1   
@<TRIPOS>SUBSTRUCTURE
     1 XL6         1 TEMP              0 ****  ****    0 ROOT
