@<TRIPOS>MOLECULE
XL6
   57    59     1     0     0
SMALL
abcg2


@<TRIPOS>ATOM
      1 C1          -5.3610     0.2090     0.5820 ca         1 XL6       0.190100
      2 C2          -4.0400    -0.2100     0.7680 ca         1 XL6       0.061000
      3 C3          -2.9700     0.6120     0.4340 ca         1 XL6      -0.006300
      4 C4          -3.2410     1.8570    -0.1250 ca         1 XL6       0.061000
      5 C5          -4.5510     2.2970    -0.3200 ca         1 XL6       0.190100
      6 C6          -5.6060     1.4650     0.0390 ca         1 XL6      -0.276000
      7 O1          -6.3180    -0.6480     0.9420 os         1 XL6      -0.319600
      8 O2          -4.7070     3.5100    -0.8540 os         1 XL6      -0.319600
      9 C7          -7.6750    -0.2800     0.7570 c3         1 XL6       0.147900
     10 C8          -6.0190     3.9970    -1.0820 c3         1 XL6       0.147900
     11 CL1         -3.7860    -1.7900     1.4210 cl         1 XL6      -0.170000
     12 CL2         -1.9550     2.9090    -0.6020 cl         1 XL6      -0.170000
     13 C9          -1.5500     0.1680     0.6200 c3         1 XL6       0.203900
     14 O3          -1.1100    -0.3240    -0.6340 os         1 XL6      -0.318100
     15 C10          0.1770    -0.7170    -0.7300 ca         1 XL6      -0.019900
     16 C11          0.6230    -1.1850    -1.9650 ca         1 XL6       0.095900
     17 N1           1.8610    -1.5800    -2.1680 nb         1 XL6      -0.201500
     18 C12          2.6930    -1.5240    -1.1240 ca         1 XL6       0.337900
     19 N2           2.3660    -1.1210     0.0930 nb         1 XL6      -0.201500
     20 C13          1.1170    -0.7160     0.2890 ca         1 XL6       0.095900
     21 N3           3.9840    -1.9060    -1.3680 nu         1 XL6      -0.956900
     22 C14          4.9840    -1.9840    -0.3830 ca         1 XL6       0.250000
     23 C15          5.4390    -0.8110     0.2330 ca         1 XL6      -0.014000
     24 C16          6.4230    -0.8830     1.2120 ca         1 XL6      -0.102000
     25 C17          6.9650    -2.1120     1.5500 ca         1 XL6      -0.097000
     26 C18          6.5390    -3.2690     0.9140 ca         1 XL6      -0.116000
     27 C19          5.5420    -3.2230    -0.0540 ca         1 XL6      -0.078300
     28 C20          5.0550    -4.4750    -0.7220 c3         1 XL6      -0.048800
     29 N4           4.9110     0.4130    -0.1950 ns         1 XL6      -0.145000
     30 C21          4.4320     1.3910     0.6170 c          1 XL6       0.608100
     31 C22          3.6910     2.4950    -0.1040 c3         1 XL6      -0.158400
     32 C23          4.0690     3.8790     0.4040 c3         1 XL6      -0.080100
     33 O4           4.5770     1.3850     1.8260 o          1 XL6      -0.582100
     34 H1          -6.6240     1.7930    -0.1100 ha         1 XL6       0.128000
     35 H2          -7.9030    -0.0920    -0.2950 h1         1 XL6       0.046200
     36 H3          -8.2670    -1.1230     1.1000 h1         1 XL6       0.046200
     37 H4          -7.9390     0.6010     1.3460 h1         1 XL6       0.046200
     38 H5          -6.5840     4.0890    -0.1520 h1         1 XL6       0.046200
     39 H6          -5.9040     4.9830    -1.5220 h1         1 XL6       0.046200
     40 H7          -6.5710     3.3610    -1.7770 h1         1 XL6       0.046200
     41 H8          -0.9340     1.0110     0.9460 h1         1 XL6       0.057200
     42 H9          -1.4760    -0.6050     1.3880 h1         1 XL6       0.057200
     43 H10         -0.0610    -1.2330    -2.8080 h4         1 XL6       0.035100
     44 H11          0.8760    -0.3920     1.2960 h4         1 XL6       0.035100
     45 H12          4.1310    -2.3970    -2.2360 hn         1 XL6       0.510000
     46 H13          6.7850     0.0170     1.6870 ha         1 XL6       0.136000
     47 H14          7.7370    -2.1640     2.3070 ha         1 XL6       0.116000
     48 H15          6.9770    -4.2230     1.1790 ha         1 XL6       0.114000
     49 H16          3.9740    -4.5870    -0.6210 hc         1 XL6       0.043700
     50 H17          5.2790    -4.4830    -1.7910 hc         1 XL6       0.043700
     51 H18          5.5250    -5.3540    -0.2850 hc         1 XL6       0.043700
     52 H19          4.6510     0.4590    -1.1690 hn         1 XL6       0.154000
     53 H20          3.8470     2.4300    -1.1820 hc         1 XL6       0.056200
     54 H21          2.6230     2.3210     0.0610 hc         1 XL6       0.056200
     55 H22          3.8760     3.9780     1.4710 hc         1 XL6       0.042367
     56 H23          5.1250     4.0900     0.2300 hc         1 XL6       0.042367
     57 H24          3.4880     4.6420    -0.1120 hc         1 XL6       0.042367
@<TRIPOS>BOND
     1     1     2 ar  
     2     1     6 ar  
     3     1     7 1   
     4     2     3 ar  
     5     2    11 1   
     6     3     4 ar  
     7     3    13 1   
     8     4     5 ar  
     9     4    12 1   
    10     5     6 ar  
    11     5     8 1   
    12     6    34 1   
    13     7     9 1   
    14     8    10 1   
    15     9    35 1   
    16     9    36 1   
    17     9    37 1   
    18    10    38 1   
    19    10    39 1   
    20    10    40 1   
    21    13    14 1   
    22    13    41 1   
    23    13    42 1   
    24    14    15 1   
    25    15    16 ar  
    26    15    20 ar  
    27    16    17 ar  
    28    16    43 1   
    29    17    18 ar  
    30    18    19 ar  
    31    18    21 1   
    32    19    20 ar  
    33    20    44 1   
    34    21    22 1   
    35    21    45 1   
    36    22    23 ar  
    37    22    27 ar  
    38    23    24 ar  
    39    23    29 1   
    40    24    25 ar  
    41    24    46 1   
    42    25    26 ar  
    43    25    47 1   
    44    26    27 ar  
    45    26    48 1   
    46    27    28 1   
    47    28    49 1   
    48    28    50 1   
    49    28    51 1   
    50    29    30 1   
    51    29    52 1   
    52    30    31 1   
    53    30    33 2   
    54    31    32 1   
    55    31    53 1   
    56    31    54 1   
    57    32    55 1   
    58    32    56 1   
    59    32    57 1   
@<TRIPOS>SUBSTRUCTURE
     1 XL6         1 TEMP              0 ****  ****    0 ROOT
