@<TRIPOS>MOLECULE
XL7
   54    56     1     0     0
SMALL
No Charge or Current Charge


@<TRIPOS>ATOM
      1 C1          -5.8880    -0.3350    -0.3530 ca         1 XL7       0.190100
      2 C2          -4.6600    -0.6530     0.2660 ca         1 XL7       0.061000
      3 C3          -3.7820     0.3710     0.6910 ca         1 XL7      -0.007300
      4 C4          -4.1440     1.7220     0.4710 ca         1 XL7       0.061000
      5 C5          -5.3720     2.0440    -0.1470 ca         1 XL7       0.190100
      6 C6          -6.2450     1.0140    -0.5560 ca         1 XL7      -0.275000
      7 O1          -6.7140    -1.3730    -0.7480 os         1 XL7      -0.319100
      8 O2          -5.6820     3.3790    -0.3370 os         1 XL7      -0.319100
      9 C7          -7.9840    -1.1570    -1.3880 c3         1 XL7       0.146900
     10 C8          -6.9040     3.8130    -0.9590 c3         1 XL7       0.146900
     11 C9          -2.4500     0.0260     1.3610 c3         1 XL7       0.203900
     12 O3          -1.4420    -0.0900     0.3400 os         1 XL7      -0.315100
     13 C10         -0.1280    -0.3870     0.6450 ca         1 XL7      -0.005900
     14 C11          0.3340    -0.6100     1.9630 ca         1 XL7       0.092400
     15 N1           1.6290    -0.8940     2.2140 nb         1 XL7      -0.192000
     16 C12          2.4560    -0.9460     1.1530 ca         1 XL7       0.325900
     17 N2           2.1150    -0.7640    -0.1400 nb         1 XL7      -0.192000
     18 C13          0.8210    -0.4800    -0.3900 ca         1 XL7       0.092400
     19 Cl1         -4.2320    -2.3590     0.4880 cl         1 XL7      -0.170000
     20 Cl2         -3.0590     3.0380     0.9550 cl         1 XL7      -0.170000
     21 N3           3.7800    -1.2570     1.4460 nu         1 XL7      -0.942900
     22 C14          4.9550    -1.3520     0.6560 ca         1 XL7       0.189000
     23 C15          5.3640    -0.2940    -0.2060 ca         1 XL7       0.054000
     24 C16          6.5460    -0.4380    -0.9690 ca         1 XL7      -0.190000
     25 C17          7.3150    -1.6040    -0.8750 ca         1 XL7       0.216000
     26 C18          6.9350    -2.6380    -0.0160 ca         1 XL7      -0.181000
     27 C19          5.7680    -2.5120     0.7510 ca         1 XL7       0.162000
     28 Cl3          5.3280    -3.8400     1.8320 cl         1 XL7      -0.185000
     29 F1           8.4430    -1.7240    -1.6070 f          1 XL7      -0.170000
     30 N4           4.5890     0.8990    -0.2260 ns         1 XL7      -0.144000
     31 C20          4.6170     2.0310    -1.0230 c          1 XL7       0.610100
     32 C21          3.5370     3.0670    -0.6790 c3         1 XL7      -0.159400
     33 O4           5.3960     2.2040    -1.9530 o          1 XL7      -0.570100
     34 C22          4.1340     4.3070     0.0240 c3         1 XL7      -0.077100
     35 H1          -7.1870     1.2600    -1.0300 ha         1 XL7       0.129000
     36 H2          -8.6570    -0.5850    -0.7370 h1         1 XL7       0.046367
     37 H3          -7.8580    -0.6120    -2.3330 h1         1 XL7       0.046367
     38 H4          -8.4640    -2.1170    -1.6120 h1         1 XL7       0.046367
     39 H5          -6.9800     3.4290    -1.9840 h1         1 XL7       0.046367
     40 H6          -7.7760     3.4710    -0.3870 h1         1 XL7       0.046367
     41 H7          -6.9380     4.9090    -1.0050 h1         1 XL7       0.046367
     42 H8          -2.1780     0.8000     2.0870 h1         1 XL7       0.056700
     43 H9          -2.5380    -0.9110     1.9250 h1         1 XL7       0.056700
     44 H10         -0.3240    -0.5650     2.8280 h4         1 XL7       0.035100
     45 H11          0.5430    -0.3260    -1.4320 h4         1 XL7       0.035100
     46 H12          3.8640    -1.7300     2.3500 hn         1 XL7       0.506000
     47 H13          6.8990     0.3480    -1.6270 ha         1 XL7       0.172000
     48 H14          7.5450    -3.5340     0.0590 ha         1 XL7       0.150000
     49 H15          3.8610     0.9050     0.4760 hn         1 XL7       0.171000
     50 H16          3.0570     3.3970    -1.6070 hc         1 XL7       0.061200
     51 H17          2.7870     2.6240    -0.0120 hc         1 XL7       0.061200
     52 H18          4.6260     4.0230     0.9620 hc         1 XL7       0.045033
     53 H19          4.8740     4.8010    -0.6180 hc         1 XL7       0.045033
     54 H20          3.3450     5.0320     0.2570 hc         1 XL7       0.045033
@<TRIPOS>BOND
     1     1     2 ar  
     2     1     6 ar  
     3     1     7 1   
     4     2     3 ar  
     5     2    19 1   
     6     3     4 ar  
     7     3    11 1   
     8     4     5 ar  
     9     4    20 1   
    10     5     6 ar  
    11     5     8 1   
    12     6    35 1   
    13     7     9 1   
    14     8    10 1   
    15     9    36 1   
    16     9    37 1   
    17     9    38 1   
    18    10    39 1   
    19    10    40 1   
    20    10    41 1   
    21    11    12 1   
    22    11    42 1   
    23    11    43 1   
    24    12    13 1   
    25    13    14 ar  
    26    13    18 ar  
    27    14    15 ar  
    28    14    44 1   
    29    15    16 ar  
    30    16    17 ar  
    31    16    21 1   
    32    17    18 ar  
    33    18    45 1   
    34    21    22 1   
    35    21    46 1   
    36    22    23 ar  
    37    22    27 ar  
    38    23    24 ar  
    39    23    30 1   
    40    24    25 ar  
    41    24    47 1   
    42    25    26 ar  
    43    25    29 1   
    44    26    27 ar  
    45    26    48 1   
    46    27    28 1   
    47    30    31 1   
    48    30    49 1   
    49    31    32 1   
    50    31    33 2   
    51    32    34 1   
    52    32    50 1   
    53    32    51 1   
    54    34    52 1   
    55    34    53 1   
    56    34    54 1   
@<TRIPOS>SUBSTRUCTURE
     1 XL7         1 TEMP              0 ****  ****    0 ROOT
