@<TRIPOS>MOLECULE
XL7
   54    56     1     0     0
SMALL
abcg2


@<TRIPOS>ATOM
      1 C1          -6.0460    -0.6430    -0.3200 ca         1 XL7       0.190100
      2 C2          -4.8310    -0.8950     0.3230 ca         1 XL7       0.061000
      3 C3          -3.9440     0.1350     0.6170 ca         1 XL7      -0.007300
      4 C4          -4.2800     1.4280     0.2270 ca         1 XL7       0.061000
      5 C5          -5.4890     1.7040    -0.4110 ca         1 XL7       0.190100
      6 C6          -6.3680     0.6600    -0.6790 ca         1 XL7      -0.275000
      7 O1          -6.8310    -1.6970    -0.5540 os         1 XL7      -0.319100
      8 O2          -5.7250     2.9790    -0.7300 os         1 XL7      -0.319100
      9 C7          -8.0630    -1.4990    -1.2260 c3         1 XL7       0.146900
     10 C8          -6.9400     3.3090    -1.3810 c3         1 XL7       0.146900
     11 C9          -2.6350    -0.1220     1.3020 c3         1 XL7       0.203900
     12 O3          -1.6440    -0.1630     0.2880 os         1 XL7      -0.315100
     13 C10         -0.3620    -0.3050     0.6750 ca         1 XL7      -0.005900
     14 C11          0.0960    -0.4270     1.9790 ca         1 XL7       0.092400
     15 N1           1.3860    -0.5660     2.2580 nb         1 XL7      -0.192000
     16 C12          2.2290    -0.5870     1.2390 ca         1 XL7       0.325900
     17 N2           1.8970    -0.4810    -0.0440 nb         1 XL7      -0.192000
     18 C13          0.6150    -0.3430    -0.3170 ca         1 XL7       0.092400
     19 CL1         -4.4660    -2.5360     0.7300 cl         1 XL7      -0.170000
     20 CL2         -3.2020     2.7450     0.5260 cl         1 XL7      -0.170000
     21 N3           3.5680    -0.6930     1.5420 nu         1 XL7      -0.942900
     22 C14          4.5000    -1.0930     0.5650 ca         1 XL7       0.189000
     23 C15          5.2710    -0.1160    -0.0920 ca         1 XL7       0.054000
     24 C16          6.2000    -0.5040    -1.0570 ca         1 XL7      -0.190000
     25 C17          6.3320    -1.8470    -1.3390 ca         1 XL7       0.216000
     26 C18          5.5970    -2.8380    -0.7230 ca         1 XL7      -0.181000
     27 C19          4.6780    -2.4290     0.2280 ca         1 XL7       0.162000
     28 CL3          3.7140    -3.6180     1.0220 cl         1 XL7      -0.185000
     29 F1           7.2300    -2.2090    -2.2640 f          1 XL7      -0.170000
     30 N4           5.0490     1.1960     0.2870 ns         1 XL7      -0.144000
     31 C20          5.5690     2.3490    -0.2280 c          1 XL7       0.610100
     32 C21          5.0410     3.5920     0.4540 c3         1 XL7      -0.159400
     33 O4           6.3680     2.3780    -1.1430 o          1 XL7      -0.570100
     34 C22          5.6480     4.8780    -0.0750 c3         1 XL7      -0.077100
     35 H1          -7.3070     0.8660    -1.1730 ha         1 XL7       0.129000
     36 H2          -8.7320    -0.8450    -0.6610 h1         1 XL7       0.046367
     37 H3          -7.9170    -1.0850    -2.2260 h1         1 XL7       0.046367
     38 H4          -8.5220    -2.4800    -1.3140 h1         1 XL7       0.046367
     39 H5          -7.0240     2.8190    -2.3540 h1         1 XL7       0.046367
     40 H6          -7.8090     3.0500    -0.7720 h1         1 XL7       0.046367
     41 H7          -6.9220     4.3850    -1.5300 h1         1 XL7       0.046367
     42 H8          -2.4280     0.6770     2.0200 h1         1 XL7       0.056700
     43 H9          -2.6590    -1.0620     1.8590 h1         1 XL7       0.056700
     44 H10         -0.5760    -0.4180     2.8300 h4         1 XL7       0.035100
     45 H11          0.3340    -0.2570    -1.3620 h4         1 XL7       0.035100
     46 H12          3.7670    -0.9480     2.4990 hn         1 XL7       0.506000
     47 H13          6.8120     0.2140    -1.5780 ha         1 XL7       0.172000
     48 H14          5.7310    -3.8810    -0.9760 ha         1 XL7       0.150000
     49 H15          4.4020     1.2930     1.0580 hn         1 XL7       0.171000
     50 H16          3.9530     3.6100     0.3350 hc         1 XL7       0.061200
     51 H17          5.2160     3.4990     1.5290 hc         1 XL7       0.061200
     52 H18          6.7270     4.9070     0.0760 hc         1 XL7       0.045033
     53 H19          5.4530     5.0080    -1.1390 hc         1 XL7       0.045033
     54 H20          5.2170     5.7300     0.4480 hc         1 XL7       0.045033
@<TRIPOS>BOND
     1     1     2 ar  
     2     1     6 ar  
     3     1     7 1   
     4     2     3 ar  
     5     2    19 1   
     6     3     4 ar  
     7     3    11 1   
     8     4     5 ar  
     9     4    20 1   
    10     5     6 ar  
    11     5     8 1   
    12     6    35 1   
    13     7     9 1   
    14     8    10 1   
    15     9    36 1   
    16     9    37 1   
    17     9    38 1   
    18    10    39 1   
    19    10    40 1   
    20    10    41 1   
    21    11    12 1   
    22    11    42 1   
    23    11    43 1   
    24    12    13 1   
    25    13    14 ar  
    26    13    18 ar  
    27    14    15 ar  
    28    14    44 1   
    29    15    16 ar  
    30    16    17 ar  
    31    16    21 1   
    32    17    18 ar  
    33    18    45 1   
    34    21    22 1   
    35    21    46 1   
    36    22    23 ar  
    37    22    27 ar  
    38    23    24 ar  
    39    23    30 1   
    40    24    25 ar  
    41    24    47 1   
    42    25    26 ar  
    43    25    29 1   
    44    26    27 ar  
    45    26    48 1   
    46    27    28 1   
    47    30    31 1   
    48    30    49 1   
    49    31    32 1   
    50    31    33 2   
    51    32    34 1   
    52    32    50 1   
    53    32    51 1   
    54    34    52 1   
    55    34    53 1   
    56    34    54 1   
@<TRIPOS>SUBSTRUCTURE
     1 XL7         1 TEMP              0 ****  ****    0 ROOT
