@<TRIPOS>MOLECULE
XL8
   54    56     1     0     0
SMALL
abcg2


@<TRIPOS>ATOM
      1 C1           6.0170    -0.4270     0.1390 ca         1 XL8       0.190100
      2 C2           4.6330    -0.5560     0.0200 ca         1 XL8       0.060500
      3 C3           3.8490     0.4720    -0.4960 ca         1 XL8      -0.007300
      4 C4           4.4760     1.6520    -0.8800 ca         1 XL8       0.060500
      5 C5           5.8620     1.8020    -0.7740 ca         1 XL8       0.190100
      6 C6           6.6240     0.7580    -0.2630 ca         1 XL8      -0.275000
      7 O1           6.6790    -1.4710     0.6430 os         1 XL8      -0.319600
      8 O2           6.3720     2.9680    -1.1780 os         1 XL8      -0.319600
      9 C7           8.0830    -1.3730     0.8130 c3         1 XL8       0.146900
     10 C8           7.7710     3.1750    -1.0760 c3         1 XL8       0.146900
     11 CL1          3.9080    -2.0390     0.5300 cl         1 XL8      -0.169500
     12 CL2          3.5760     2.9910    -1.5040 cl         1 XL8      -0.169500
     13 C9           2.3640     0.2920    -0.5910 c3         1 XL8       0.203900
     14 O3           1.8520     0.3850     0.7290 os         1 XL8      -0.317100
     15 C10          0.5510     0.0890     0.9120 ca         1 XL8      -0.007900
     16 C11          0.0860    -0.0190     2.2220 ca         1 XL8       0.093900
     17 N1          -1.1720    -0.2910     2.5060 nb         1 XL8      -0.193500
     18 C12         -1.9960    -0.4650     1.4740 ca         1 XL8       0.329900
     19 N2          -1.6610    -0.3910     0.1990 nb         1 XL8      -0.193500
     20 C13         -0.3930    -0.1150    -0.0830 ca         1 XL8       0.093900
     21 N3          -3.3150    -0.7060     1.7830 nu         1 XL8      -0.950900
     22 C14         -4.2130    -1.1820     0.8090 ca         1 XL8       0.209000
     23 C15         -5.1040    -0.2800     0.2020 ca         1 XL8       0.033000
     24 C16         -6.0030    -0.7410    -0.7610 ca         1 XL8      -0.139000
     25 C17         -5.9900    -2.0820    -1.1010 ca         1 XL8       0.158000
     26 C18         -5.1230    -2.9940    -0.5260 ca         1 XL8      -0.131000
     27 C19         -4.2390    -2.5160     0.4260 ca         1 XL8       0.147000
     28 N4          -5.0260     1.0360     0.6230 ns         1 XL8      -0.146000
     29 C20         -5.6910     2.1380     0.1670 c          1 XL8       0.610100
     30 C21         -5.2860     3.4100     0.8790 c3         1 XL8      -0.159400
     31 C22         -6.0120     4.6430     0.3750 c3         1 XL8      -0.077100
     32 O4          -6.5190     2.1060    -0.7210 o          1 XL8      -0.571100
     33 CL3         -3.1300    -3.6120     1.1600 cl         1 XL8      -0.185000
     34 CL4         -7.1100    -2.6410    -2.2950 cl         1 XL8      -0.189000
     35 H1           7.6960     0.8680    -0.1770 ha         1 XL8       0.129000
     36 H2           8.5970    -1.2280    -0.1390 h1         1 XL8       0.046200
     37 H3           8.3500    -0.5620     1.4940 h1         1 XL8       0.046200
     38 H4           8.4020    -2.3170     1.2460 h1         1 XL8       0.046200
     39 H5           7.9580     4.1750    -1.4580 h1         1 XL8       0.046200
     40 H6           8.1120     3.1210    -0.0400 h1         1 XL8       0.046200
     41 H7           8.3310     2.4550    -1.6770 h1         1 XL8       0.046200
     42 H8           1.9170     1.0520    -1.2340 h1         1 XL8       0.058200
     43 H9           2.1310    -0.6850    -1.0260 h1         1 XL8       0.058200
     44 H10          0.7670     0.1230     3.0550 h4         1 XL8       0.035100
     45 H11         -0.1440    -0.0580    -1.1370 h4         1 XL8       0.035100
     46 H12         -3.4970    -0.9540     2.7450 hn         1 XL8       0.509000
     47 H13         -6.6980    -0.0700    -1.2380 ha         1 XL8       0.169000
     48 H14         -5.1290    -4.0370    -0.8100 ha         1 XL8       0.147000
     49 H15         -4.3670     1.1810     1.3770 hn         1 XL8       0.170000
     50 H16         -5.4570     3.2760     1.9510 hc         1 XL8       0.061200
     51 H17         -4.2040     3.5340     0.7680 hc         1 XL8       0.061200
     52 H18         -7.0880     4.5660     0.5230 hc         1 XL8       0.044700
     53 H19         -5.6650     5.5220     0.9160 hc         1 XL8       0.044700
     54 H20         -5.8300     4.8120    -0.6860 hc         1 XL8       0.044700
@<TRIPOS>BOND
     1     1     2 ar  
     2     1     6 ar  
     3     1     7 1   
     4     2     3 ar  
     5     2    11 1   
     6     3     4 ar  
     7     3    13 1   
     8     4     5 ar  
     9     4    12 1   
    10     5     6 ar  
    11     5     8 1   
    12     6    35 1   
    13     7     9 1   
    14     8    10 1   
    15     9    36 1   
    16     9    37 1   
    17     9    38 1   
    18    10    39 1   
    19    10    40 1   
    20    10    41 1   
    21    13    14 1   
    22    13    42 1   
    23    13    43 1   
    24    14    15 1   
    25    15    16 ar  
    26    15    20 ar  
    27    16    17 ar  
    28    16    44 1   
    29    17    18 ar  
    30    18    19 ar  
    31    18    21 1   
    32    19    20 ar  
    33    20    45 1   
    34    21    22 1   
    35    21    46 1   
    36    22    23 ar  
    37    22    27 ar  
    38    23    24 ar  
    39    23    28 1   
    40    24    25 ar  
    41    24    47 1   
    42    25    26 ar  
    43    25    34 1   
    44    26    27 ar  
    45    26    48 1   
    46    27    33 1   
    47    28    29 1   
    48    28    49 1   
    49    29    30 1   
    50    29    32 2   
    51    30    31 1   
    52    30    50 1   
    53    30    51 1   
    54    31    52 1   
    55    31    53 1   
    56    31    54 1   
@<TRIPOS>SUBSTRUCTURE
     1 XL8         1 TEMP              0 ****  ****    0 ROOT
