@<TRIPOS>MOLECULE
XL8
   54    56     1     0     0
SMALL
No Charge or Current Charge


@<TRIPOS>ATOM
      1 C1           6.0020    -0.1750    -0.2300 ca         1 XL8       0.190100
      2 C2           4.6330    -0.5030    -0.3370 ca         1 XL8       0.060500
      3 C3           3.6500     0.5140    -0.3740 ca         1 XL8      -0.007300
      4 C4           4.0580     1.8660    -0.2830 ca         1 XL8       0.060500
      5 C5           5.4260     2.1980    -0.1750 ca         1 XL8       0.190100
      6 C6           6.3970     1.1760    -0.1520 ca         1 XL8      -0.275000
      7 O1           6.9250    -1.2060    -0.2010 os         1 XL8      -0.319600
      8 O2           5.7740     3.5350    -0.0920 os         1 XL8      -0.319600
      9 C7           8.3410    -0.9800    -0.0910 c3         1 XL8       0.146900
     10 C8           7.1380     3.9790     0.0220 c3         1 XL8       0.146900
     11 Cl1          4.1660    -2.2120    -0.4120 cl         1 XL8      -0.169500
     12 Cl2          2.8590     3.1730    -0.2890 cl         1 XL8      -0.169500
     13 C9           2.1660     0.1580    -0.4890 c3         1 XL8       0.203900
     14 O3           1.6280     0.0050     0.8380 os         1 XL8      -0.317100
     15 C10          0.2990    -0.3030     1.0520 ca         1 XL8      -0.007900
     16 C11         -0.1790    -0.4360     2.3690 ca         1 XL8       0.093900
     17 N1          -1.4700    -0.7300     2.6280 nb         1 XL8      -0.193500
     18 C12         -2.2790    -0.8830     1.5630 ca         1 XL8       0.329900
     19 N2          -1.9230    -0.7940     0.2650 nb         1 XL8      -0.193500
     20 C13         -0.6320    -0.4990     0.0070 ca         1 XL8       0.093900
     21 N3          -3.6010    -1.2000     1.8620 nu         1 XL8      -0.950900
     22 C14         -4.7610    -1.3780     1.0660 ca         1 XL8       0.209000
     23 C15         -5.1770    -0.3970     0.1220 ca         1 XL8       0.033000
     24 C16         -6.3460    -0.6220    -0.6420 ca         1 XL8      -0.139000
     25 C17         -7.0950    -1.7940    -0.4720 ca         1 XL8       0.158000
     26 C18         -6.7050    -2.7520     0.4700 ca         1 XL8      -0.131000
     27 C19         -5.5520    -2.5440     1.2400 ca         1 XL8       0.147000
     28 N4          -4.4250     0.8080     0.0210 ns         1 XL8      -0.146000
     29 C20         -4.4600     1.8720    -0.8640 c          1 XL8       0.610100
     30 C21         -3.4060     2.9530    -0.5870 c3         1 XL8      -0.159400
     31 C22         -4.0370     4.2330     0.0030 c3         1 XL8      -0.077100
     32 O4          -5.2250     1.9530    -1.8180 o          1 XL8      -0.571100
     33 Cl3         -5.1000    -3.7770     2.4250 cl         1 XL8      -0.185000
     34 Cl4         -8.5470    -2.0520    -1.4300 cl         1 XL8      -0.189000
     35 H1           7.4480     1.4290    -0.0700 ha         1 XL8       0.129000
     36 H2           8.7090    -0.3880    -0.9390 h1         1 XL8       0.046200
     37 H3           8.5820    -0.4520     0.8400 h1         1 XL8       0.046200
     38 H4           8.8790    -1.9360    -0.0870 h1         1 XL8       0.046200
     39 H5           7.1770     5.0740     0.0730 h1         1 XL8       0.046200
     40 H6           7.6030     3.5800     0.9320 h1         1 XL8       0.046200
     41 H7           7.7270     3.6580    -0.8470 h1         1 XL8       0.046200
     42 H8           1.6290     0.9410    -1.0370 h1         1 XL8       0.058200
     43 H9           2.0400    -0.7660    -1.0670 h1         1 XL8       0.058200
     44 H10          0.4780    -0.3050     3.2280 h4         1 XL8       0.035100
     45 H11         -0.3590    -0.4230    -1.0440 h4         1 XL8       0.035100
     46 H12         -3.6880    -1.6060     2.7970 hn         1 XL8       0.509000
     47 H13         -6.7030     0.1060    -1.3620 ha         1 XL8       0.169000
     48 H14         -7.2960    -3.6530     0.6060 ha         1 XL8       0.147000
     49 H15         -3.7090     0.8840     0.7320 hn         1 XL8       0.170000
     50 H16         -2.6590     2.5790     0.1250 hc         1 XL8       0.061200
     51 H17         -2.9150     3.2160    -1.5320 hc         1 XL8       0.061200
     52 H18         -4.5410     4.0160     0.9530 hc         1 XL8       0.044700
     53 H19         -3.2660     4.9900     0.1900 hc         1 XL8       0.044700
     54 H20         -4.7740     4.6600    -0.6890 hc         1 XL8       0.044700
@<TRIPOS>BOND
     1     1     2 ar  
     2     1     6 ar  
     3     1     7 1   
     4     2     3 ar  
     5     2    11 1   
     6     3     4 ar  
     7     3    13 1   
     8     4     5 ar  
     9     4    12 1   
    10     5     6 ar  
    11     5     8 1   
    12     6    35 1   
    13     7     9 1   
    14     8    10 1   
    15     9    36 1   
    16     9    37 1   
    17     9    38 1   
    18    10    39 1   
    19    10    40 1   
    20    10    41 1   
    21    13    14 1   
    22    13    42 1   
    23    13    43 1   
    24    14    15 1   
    25    15    16 ar  
    26    15    20 ar  
    27    16    17 ar  
    28    16    44 1   
    29    17    18 ar  
    30    18    19 ar  
    31    18    21 1   
    32    19    20 ar  
    33    20    45 1   
    34    21    22 1   
    35    21    46 1   
    36    22    23 ar  
    37    22    27 ar  
    38    23    24 ar  
    39    23    28 1   
    40    24    25 ar  
    41    24    47 1   
    42    25    26 ar  
    43    25    34 1   
    44    26    27 ar  
    45    26    48 1   
    46    27    33 1   
    47    28    29 1   
    48    28    49 1   
    49    29    30 1   
    50    29    32 2   
    51    30    31 1   
    52    30    50 1   
    53    30    51 1   
    54    31    52 1   
    55    31    53 1   
    56    31    54 1   
@<TRIPOS>SUBSTRUCTURE
     1 XL8         1 TEMP              0 ****  ****    0 ROOT
