@<TRIPOS>MOLECULE
XL9
   60    63     1     0     0
SMALL
No Charge or Current Charge


@<TRIPOS>ATOM
      1 C1           6.0280     1.1410     0.5350 ca         1 XL9       0.191100
      2 C2           4.6210     1.2510     0.5070 ca         1 XL9       0.049000
      3 C3           3.8290     0.2640    -0.1350 cp         1 XL9       0.051000
      4 C4           4.4800    -0.8370    -0.7480 ca         1 XL9       0.049000
      5 C5           5.8870    -0.9490    -0.7230 ca         1 XL9       0.191100
      6 C6           6.6590     0.0400    -0.0810 ca         1 XL9      -0.284000
      7 O1           6.7520     2.1300     1.1780 os         1 XL9      -0.319100
      8 O2           6.4710    -2.0420    -1.3410 os         1 XL9      -0.319100
      9 C7           8.1880     2.1110     1.2650 c3         1 XL9       0.146900
     10 C8           7.8940    -2.2480    -1.3720 c3         1 XL9       0.146900
     11 C9           2.3400     0.3810    -0.1630 cp         1 XL9      -0.072000
     12 C10          1.5270    -0.5330     0.5470 ca         1 XL9      -0.019000
     13 C11          0.1260    -0.4190     0.5150 ca         1 XL9      -0.205000
     14 C12         -0.5000     0.6100    -0.2230 ca         1 XL9       0.094000
     15 C13          0.3050     1.5200    -0.9290 ca         1 XL9      -0.117000
     16 C14          1.7060     1.4090    -0.9010 ca         1 XL9      -0.044000
     17 C15         -0.6960    -1.3210     1.2160 ca         1 XL9       0.179900
     18 N1          -2.0370    -1.2160     1.1890 nb         1 XL9      -0.232000
     19 C16         -2.5410    -0.2060     0.4560 ca         1 XL9       0.391900
     20 N2          -1.8460     0.7070    -0.2440 nb         1 XL9      -0.261000
     21 N3          -3.9180    -0.0530     0.4020 nu         1 XL9      -0.919100
     22 C17         -4.9360    -0.8650     1.1140 c6         1 XL9       0.201500
     23 C18         -6.3210    -0.1260     1.1290 c6         1 XL9       0.099700
     24 C19         -7.3640    -1.0340     1.8360 c6         1 XL9      -0.131400
     25 C20         -7.4140    -2.4460     1.2000 c6         1 XL9       0.148600
     26 O3          -6.0980    -3.0390     1.2170 os         1 XL9      -0.440000
     27 C21         -5.1040    -2.2830     0.4850 c6         1 XL9       0.130600
     28 N4          -6.8180     0.2270    -0.2230 ns         1 XL9      -0.521900
     29 C22         -6.4190     1.3030    -0.9830 c          1 XL9       0.598100
     30 C23         -7.1210     1.4400    -2.3360 c3         1 XL9      -0.158400
     31 C24         -8.1230     2.6140    -2.3410 c3         1 XL9      -0.079100
     32 O4          -5.5370     2.0660    -0.6170 o          1 XL9      -0.592100
     33 Cl1          3.8530     2.6300     1.3110 cl         1 XL9      -0.168500
     34 Cl2          3.5360    -2.0820    -1.5840 cl         1 XL9      -0.168500
     35 H1           7.7390    -0.0450    -0.0600 ha         1 XL9       0.127000
     36 H2           8.5460     2.9890     1.8170 h1         1 XL9       0.045367
     37 H3           8.5350     1.2130     1.7930 h1         1 XL9       0.045367
     38 H4           8.6400     2.1300     0.2650 h1         1 XL9       0.045367
     39 H5           8.3980    -1.4180    -1.8840 h1         1 XL9       0.045367
     40 H6           8.2990    -2.3360    -0.3560 h1         1 XL9       0.045367
     41 H7           8.1310    -3.1730    -1.9120 h1         1 XL9       0.045367
     42 H8           1.9950    -1.3300     1.1220 ha         1 XL9       0.121000
     43 H9          -0.1590     2.3180    -1.5040 ha         1 XL9       0.134000
     44 H10          2.3100     2.1230    -1.4560 ha         1 XL9       0.122000
     45 H11         -0.2790    -2.1360     1.8060 h4         1 XL9       0.023100
     46 H12         -4.2470     0.8000    -0.0650 hn         1 XL9       0.507000
     47 H13         -4.6300    -1.0020     2.1640 h1         1 XL9       0.100700
     48 H14         -6.2160     0.8050     1.7080 h1         1 XL9       0.100700
     49 H15         -7.1090    -1.1280     2.9000 hc         1 XL9       0.065700
     50 H16         -8.3590    -0.5700     1.8000 hc         1 XL9       0.065700
     51 H17         -8.1010    -3.0890     1.7680 h1         1 XL9       0.045200
     52 H18         -7.7760    -2.3950     0.1630 h1         1 XL9       0.045200
     53 H19         -5.4080    -2.2020    -0.5690 h1         1 XL9       0.050700
     54 H20         -4.1520    -2.8290     0.5220 h1         1 XL9       0.050700
     55 H21         -7.5490    -0.3480    -0.6250 hn         1 XL9       0.307500
     56 H22         -6.3650     1.6300    -3.1080 hc         1 XL9       0.055700
     57 H23         -7.6690     0.5200    -2.5730 hc         1 XL9       0.055700
     58 H24         -8.8980     2.4650    -1.5790 hc         1 XL9       0.043700
     59 H25         -7.6120     3.5620    -2.1340 hc         1 XL9       0.043700
     60 H26         -8.6140     2.6960    -3.3180 hc         1 XL9       0.043700
@<TRIPOS>BOND
     1     1     2 ar  
     2     1     6 ar  
     3     1     7 1   
     4     2     3 ar  
     5     2    33 1   
     6     3     4 ar  
     7     3    11 1   
     8     4     5 ar  
     9     4    34 1   
    10     5     6 ar  
    11     5     8 1   
    12     6    35 1   
    13     7     9 1   
    14     8    10 1   
    15     9    36 1   
    16     9    37 1   
    17     9    38 1   
    18    10    39 1   
    19    10    40 1   
    20    10    41 1   
    21    11    12 ar  
    22    11    16 ar  
    23    12    13 ar  
    24    12    42 1   
    25    13    14 ar  
    26    13    17 ar  
    27    14    15 ar  
    28    14    20 ar  
    29    15    16 ar  
    30    15    43 1   
    31    16    44 1   
    32    17    18 ar  
    33    17    45 1   
    34    18    19 ar  
    35    19    20 ar  
    36    19    21 1   
    37    21    22 1   
    38    21    46 1   
    39    22    23 1   
    40    22    27 1   
    41    22    47 1   
    42    23    24 1   
    43    23    28 1   
    44    23    48 1   
    45    24    25 1   
    46    24    49 1   
    47    24    50 1   
    48    25    26 1   
    49    25    51 1   
    50    25    52 1   
    51    26    27 1   
    52    27    53 1   
    53    27    54 1   
    54    28    29 1   
    55    28    55 1   
    56    29    30 1   
    57    29    32 2   
    58    30    31 1   
    59    30    56 1   
    60    30    57 1   
    61    31    58 1   
    62    31    59 1   
    63    31    60 1   
@<TRIPOS>SUBSTRUCTURE
     1 XL9         1 TEMP              0 ****  ****    0 ROOT
