@<TRIPOS>MOLECULE
XLC
   57    60     1     0     0
SMALL
No Charge or Current Charge


@<TRIPOS>ATOM
      1 C1           9.7220     7.7370    24.8280 ca         1 XLC      -0.024000
      2 C2          10.6370     6.7630    24.3690 ca         1 XLC      -0.139000
      3 C3          12.0190     6.9360    24.5670 ca         1 XLC      -0.074000
      4 C4          12.4990     8.0820    25.2190 ca         1 XLC       0.098000
      5 Cl1         14.2280     8.2960    25.4640 cl         1 XLC      -0.208000
      6 C5          11.6000     9.0600    25.6710 ca         1 XLC      -0.074000
      7 C6          10.2180     8.8880    25.4720 ca         1 XLC      -0.139000
      8 N7           8.3130     7.6340    24.6560 ns         1 XLC      -0.133000
      9 C9           7.4940     6.5860    24.2500 c          1 XLC       0.629700
     10 O10          7.9240     5.4640    24.0130 o          1 XLC      -0.605100
     11 C11          6.0060     6.9100    24.1720 ca         1 XLC      -0.199600
     12 C12          5.0990     6.1110    23.4140 ca         1 XLC       0.038000
     13 C13          3.7280     6.4550    23.3840 ca         1 XLC      -0.125000
     14 C14          3.2430     7.5570    24.1030 ca         1 XLC      -0.052000
     15 C15          4.1250     8.3370    24.8570 ca         1 XLC       0.088000
     16 Cl2          3.5200     9.7170    25.7650 cl         1 XLC      -0.199000
     17 C16          5.4910     8.0220    24.8920 ca         1 XLC      -0.062000
     18 N17          5.5740     5.0210    22.6340 ns         1 XLC      -0.143000
     19 C19          4.9460     3.8710    22.1900 c          1 XLC       0.653700
     20 O20          3.8180     3.5550    22.5490 o          1 XLC      -0.596100
     21 C21          5.7300     3.0130    21.2720 cc         1 XLC      -0.303600
     22 S22          5.0790     1.4570    20.7960 ss         1 XLC       0.344000
     23 C23          6.5160     1.1080    19.8540 cc         1 XLC      -0.243000
     24 C24          7.4050     2.1590    19.8520 cd         1 XLC      -0.140300
     25 C25          6.9550     3.2460    20.6720 cd         1 XLC       0.143000
     26 Cl3          7.9280     4.6860    20.8040 cl         1 XLC      -0.155000
     27 C26          8.7170     2.1370    19.0880 c3         1 XLC       0.242100
     28 N27          8.6110     2.5190    17.6550 n3         1 XLC      -0.728600
     29 C29          7.7810     1.5850    16.8320 c6         1 XLC       0.168800
     30 C30          7.7820     1.9720    15.3180 c6         1 XLC       0.162300
     31 N31          7.3410     3.3830    15.0920 n3         1 XLC      -0.719600
     32 C33          8.1680     4.3170    15.9170 c6         1 XLC       0.162300
     33 C34          8.1750     3.9320    17.4310 c6         1 XLC       0.168800
     34 C35          7.3140     3.7530    13.6610 c3         1 XLC       0.152100
     35 HC2         10.3020     5.8710    23.8470 ha         1 XLC       0.135000
     36 HC3         12.7190     6.1830    24.2120 ha         1 XLC       0.132000
     37 HC5         11.9730     9.9490    26.1730 ha         1 XLC       0.132000
     38 HC6          9.5310     9.6540    25.8270 ha         1 XLC       0.135000
     39 HN7          7.8180     8.4950    24.8420 hn         1 XLC       0.160000
     40 HC13         3.0230     5.8860    22.7840 ha         1 XLC       0.153000
     41 HC14         2.1860     7.8100    24.0710 ha         1 XLC       0.137000
     42 HC16         6.1340     8.6470    25.5060 ha         1 XLC       0.129000
     43 HN17         6.5470     5.0920    22.3710 hn         1 XLC       0.202000
     44 HC23         6.5870     0.1560    19.3460 h4         1 XLC       0.156000
     45 H261         9.1290     1.1210    19.1630 h1         1 XLC       0.065200
     46 H262         9.4430     2.7870    19.5940 h1         1 XLC       0.065200
     47 H291         6.7390     1.5910    17.1840 h1         1 XLC       0.040950
     48 H292         8.1510     0.5550    16.9340 h1         1 XLC       0.040950
     49 H301         7.1230     1.2770    14.7780 h1         1 XLC       0.038450
     50 H302         8.7980     1.8260    14.9220 h1         1 XLC       0.038450
     51 H331         7.7920     5.3460    15.8190 h1         1 XLC       0.038450
     52 H332         9.2070     4.3200    15.5550 h1         1 XLC       0.038450
     53 H341         8.8410     4.6250    17.9640 h1         1 XLC       0.040950
     54 H342         7.1610     4.0850    17.8310 h1         1 XLC       0.040950
     55 H351         6.6570     3.0760    13.0980 h1         1 XLC       0.031367
     56 H352         6.9370     4.7760    13.5320 h1         1 XLC       0.031367
     57 H353         8.3200     3.6990    13.2230 h1         1 XLC       0.031367
@<TRIPOS>BOND
     1     1     2 ar  
     2     1     7 ar  
     3     1     8 1   
     4     2     3 ar  
     5     2    35 1   
     6     3     4 ar  
     7     3    36 1   
     8     4     5 1   
     9     4     6 ar  
    10     6     7 ar  
    11     6    37 1   
    12     7    38 1   
    13     8     9 1   
    14     8    39 1   
    15     9    10 2   
    16     9    11 1   
    17    11    12 ar  
    18    11    17 ar  
    19    12    13 ar  
    20    12    18 1   
    21    13    14 ar  
    22    13    40 1   
    23    14    15 ar  
    24    14    41 1   
    25    15    16 1   
    26    15    17 ar  
    27    17    42 1   
    28    18    19 1   
    29    18    43 1   
    30    19    20 2   
    31    19    21 1   
    32    21    22 1   
    33    21    25 2   
    34    22    23 1   
    35    23    24 2   
    36    23    44 1   
    37    24    25 1   
    38    24    27 1   
    39    25    26 1   
    40    27    28 1   
    41    27    45 1   
    42    27    46 1   
    43    28    29 1   
    44    28    33 1   
    45    29    30 1   
    46    29    47 1   
    47    29    48 1   
    48    30    31 1   
    49    30    49 1   
    50    30    50 1   
    51    31    32 1   
    52    31    34 1   
    53    32    33 1   
    54    32    51 1   
    55    32    52 1   
    56    33    53 1   
    57    33    54 1   
    58    34    55 1   
    59    34    56 1   
    60    34    57 1   
@<TRIPOS>SUBSTRUCTURE
     1 XLC         1 TEMP              0 ****  ****    0 ROOT
