@<TRIPOS>MOLECULE
XLC
   57    60     1     0     0
SMALL
abcg2


@<TRIPOS>ATOM
      1 C1           9.6510     7.6740    25.3790 ca         1 XLC      -0.024000
      2 C2          10.6510     7.4890    24.4200 ca         1 XLC      -0.139000
      3 C3          11.9890     7.5870    24.7870 ca         1 XLC      -0.074000
      4 C4          12.3280     7.8660    26.1020 ca         1 XLC       0.098000
      5 CL1         14.0150     7.9860    26.5540 cl         1 XLC      -0.208000
      6 C5          11.3460     8.0510    27.0660 ca         1 XLC      -0.074000
      7 C6          10.0140     7.9550    26.7010 ca         1 XLC      -0.139000
      8 N7           8.2750     7.6050    25.1030 ns         1 XLC      -0.133000
      9 C9           7.6500     7.3350    23.9280 c          1 XLC       0.629700
     10 O10          8.2440     7.0310    22.8930 o          1 XLC      -0.605100
     11 C11          6.1580     7.4340    23.9670 ca         1 XLC      -0.199600
     12 C12          5.3560     6.5710    23.1890 ca         1 XLC       0.038000
     13 C13          3.9670     6.7150    23.2340 ca         1 XLC      -0.125000
     14 C14          3.3740     7.6880    24.0210 ca         1 XLC      -0.052000
     15 C15          4.1730     8.5360    24.7760 ca         1 XLC       0.088000
     16 CL2          3.4330     9.7770    25.7600 cl         1 XLC      -0.199000
     17 C16          5.5500     8.4190    24.7480 ca         1 XLC      -0.062000
     18 N17          5.9630     5.6040    22.3750 ns         1 XLC      -0.143000
     19 C19          5.4460     4.3800    22.0680 c          1 XLC       0.653700
     20 O20          4.3700     3.9700    22.5030 o          1 XLC      -0.596100
     21 C21          6.2500     3.5060    21.1910 cc         1 XLC      -0.303600
     22 S22          5.7410     1.8500    21.1400 ss         1 XLC       0.344000
     23 C23          6.9850     1.4410    20.0450 cc         1 XLC      -0.243000
     24 C24          7.7700     2.5040    19.6830 cd         1 XLC      -0.140300
     25 C25          7.3350     3.6840    20.3570 cd         1 XLC       0.143000
     26 CL3          8.1360     5.2040    20.1190 cl         1 XLC      -0.155000
     27 C26          8.9060     2.4100    18.6880 c3         1 XLC       0.242100
     28 N27          8.5350     2.5000    17.2760 n3         1 XLC      -0.728600
     29 C29          7.6900     1.4050    16.8140 c6         1 XLC       0.168800
     30 C30          7.5220     1.4720    15.3060 c6         1 XLC       0.162300
     31 N31          6.9510     2.7560    14.9090 n3         1 XLC      -0.719600
     32 C33          7.7980     3.8480    15.3770 c6         1 XLC       0.162300
     33 C34          7.9720     3.7880    16.8850 c6         1 XLC       0.168800
     34 C35          6.7380     2.8230    13.4720 c3         1 XLC       0.152100
     35 HC2         10.3900     7.2700    23.3990 ha         1 XLC       0.135000
     36 HC3         12.7610     7.4440    24.0440 ha         1 XLC       0.132000
     37 HC5         11.6160     8.2690    28.0900 ha         1 XLC       0.132000
     38 HC6          9.2440     8.1010    27.4480 ha         1 XLC       0.135000
     39 HN7          7.6780     7.7540    25.9020 hn         1 XLC       0.160000
     40 HC13         3.3470     6.0640    22.6400 ha         1 XLC       0.153000
     41 HC14         2.2980     7.7930    24.0350 ha         1 XLC       0.137000
     42 HC16         6.1530     9.1110    25.3200 ha         1 XLC       0.129000
     43 HN17         6.9240     5.8090    22.1250 hn         1 XLC       0.202000
     44 HC23         7.0900     0.4200    19.7120 h4         1 XLC       0.156000
     45 H261         9.4080     1.4520    18.8330 h1         1 XLC       0.065200
     46 H262         9.6330     3.1960    18.8940 h1         1 XLC       0.065200
     47 H291         6.6930     1.4320    17.2830 h1         1 XLC       0.040950
     48 H292         8.1600     0.4580    17.0900 h1         1 XLC       0.040950
     49 H301         6.8530     0.6740    14.9770 h1         1 XLC       0.038450
     50 H302         8.5020     1.3090    14.8230 h1         1 XLC       0.038450
     51 H331         7.3330     4.7960    15.1010 h1         1 XLC       0.038450
     52 H332         8.7920     3.8090    14.8960 h1         1 XLC       0.038450
     53 H341         8.6500     4.5800    17.2050 h1         1 XLC       0.040950
     54 H342         6.9950     3.9690    17.3630 h1         1 XLC       0.040950
     55 H351         6.0710     2.0180    13.1600 h1         1 XLC       0.031367
     56 H352         6.2760     3.7770    13.2120 h1         1 XLC       0.031367
     57 H353         7.6780     2.7300    12.9030 h1         1 XLC       0.031367
@<TRIPOS>BOND
     1     1     2 ar  
     2     1     7 ar  
     3     1     8 1   
     4     2     3 ar  
     5     2    35 1   
     6     3     4 ar  
     7     3    36 1   
     8     4     5 1   
     9     4     6 ar  
    10     6     7 ar  
    11     6    37 1   
    12     7    38 1   
    13     8     9 1   
    14     8    39 1   
    15     9    10 2   
    16     9    11 1   
    17    11    12 ar  
    18    11    17 ar  
    19    12    13 ar  
    20    12    18 1   
    21    13    14 ar  
    22    13    40 1   
    23    14    15 ar  
    24    14    41 1   
    25    15    16 1   
    26    15    17 ar  
    27    17    42 1   
    28    18    19 1   
    29    18    43 1   
    30    19    20 2   
    31    19    21 1   
    32    21    22 1   
    33    21    25 2   
    34    22    23 1   
    35    23    24 2   
    36    23    44 1   
    37    24    25 1   
    38    24    27 1   
    39    25    26 1   
    40    27    28 1   
    41    27    45 1   
    42    27    46 1   
    43    28    29 1   
    44    28    33 1   
    45    29    30 1   
    46    29    47 1   
    47    29    48 1   
    48    30    31 1   
    49    30    49 1   
    50    30    50 1   
    51    31    32 1   
    52    31    34 1   
    53    32    33 1   
    54    32    51 1   
    55    32    52 1   
    56    33    53 1   
    57    33    54 1   
    58    34    55 1   
    59    34    56 1   
    60    34    57 1   
@<TRIPOS>SUBSTRUCTURE
     1 XLC         1 TEMP              0 ****  ****    0 ROOT
