@<TRIPOS>MOLECULE
XLD
   56    59     1     0     0
SMALL
abcg2


@<TRIPOS>ATOM
      1 C1          -2.0640    -0.1860    -4.0290 ca         1 XLD       0.487900
      2 N2          -2.6740    -1.2460    -3.5330 nb         1 XLD      -0.671000
      3 C3          -3.9630    -1.4180    -3.7910 ca         1 XLD       0.389900
      4 C4          -4.6940    -0.5360    -4.5660 ca         1 XLD       0.023000
      5 CL1         -6.3690    -0.8220    -4.8640 cl         1 XLD      -0.180000
      6 C5          -4.0570     0.5760    -5.1000 ca         1 XLD      -0.037000
      7 C6          -2.7180     0.7580    -4.8270 ca         1 XLD      -0.209000
      8 N7          -0.7100     0.0070    -3.7760 ns         1 XLD      -0.329900
      9 C9           0.0730    -0.5970    -2.8360 c          1 XLD       0.617700
     10 O10         -0.3070    -1.4060    -2.0210 o          1 XLD      -0.499100
     11 C11          1.5100    -0.1680    -2.9060 ca         1 XLD      -0.130600
     12 C12          2.1640     0.2330    -1.7490 ca         1 XLD      -0.037000
     13 C13          3.5320     0.5400    -1.7950 ca         1 XLD       0.167100
     14 C14          4.2230     0.4330    -2.9990 ca         1 XLD      -0.180000
     15 C15          3.5370     0.0430    -4.1380 ca         1 XLD       0.154000
     16 CL2          4.4070    -0.0820    -5.6280 cl         1 XLD      -0.190000
     17 C16          2.1870    -0.2500    -4.1200 ca         1 XLD      -0.121000
     18 O17          4.0850     0.9360    -0.6490 os         1 XLD      -0.317100
     19 C18          5.4670     1.2520    -0.6290 c3         1 XLD       0.144900
     20 N19          1.4700     0.3810    -0.5350 ns         1 XLD      -0.160000
     21 C20          1.6200    -0.5160     0.4720 c          1 XLD       0.663700
     22 O21          2.3520    -1.4820     0.3990 o          1 XLD      -0.540100
     23 C22          0.8300    -0.2180     1.6840 cc         1 XLD      -0.285600
     24 S23          0.4480     1.3920     2.1560 ss         1 XLD       0.248000
     25 C24         -0.3970     0.8560     3.5370 cc         1 XLD      -0.224000
     26 C25         -0.4010    -0.5010     3.6590 cd         1 XLD      -0.134300
     27 C26          0.3180    -1.1040     2.5900 cd         1 XLD       0.154000
     28 CL3          0.4590    -2.8080     2.4720 cl         1 XLD      -0.134000
     29 C28         -1.0620    -1.2820     4.7610 c3         1 XLD       0.295100
     30 N29         -1.8140    -0.4680     5.6860 nh         1 XLD      -0.740600
     31 C31         -3.1560    -0.0710     5.3130 c3         1 XLD       0.218100
     32 C32         -1.1810     0.2640     6.6340 c2         1 XLD       0.791500
     33 N33         -1.6800     1.2380     7.2850 n2         1 XLD      -0.722900
     34 C34         -0.6730     1.6420     8.2530 c5         1 XLD       0.090800
     35 C35          0.5780     0.8310     7.8700 c5         1 XLD       0.121600
     36 O36          0.0810    -0.1100     6.9070 os         1 XLD      -0.462600
     37 HC3         -4.4330    -2.2980    -3.3670 h4         1 XLD       0.040100
     38 HC5         -4.5930     1.2880    -5.7120 ha         1 XLD       0.135000
     39 HC6         -2.1910     1.6170    -5.2220 ha         1 XLD       0.126000
     40 HN7         -0.2790     0.7570    -4.2980 hn         1 XLD       0.160000
     41 H141         5.2780     0.6570    -3.0630 ha         1 XLD       0.139000
     42 H161         1.6800    -0.5690    -5.0200 ha         1 XLD       0.139000
     43 H181         5.6960     1.5460     0.3920 h1         1 XLD       0.047700
     44 H182         6.0820     0.3900    -0.8960 h1         1 XLD       0.047700
     45 H183         5.7030     2.0820    -1.2990 h1         1 XLD       0.047700
     46 H191         0.6900     1.0220    -0.5170 hn         1 XLD       0.160000
     47 H241        -0.8470     1.5820     4.1980 h4         1 XLD       0.163000
     48 H281        -1.7520    -2.0060     4.3220 h1         1 XLD       0.078700
     49 H282        -0.3160    -1.8750     5.2930 h1         1 XLD       0.078700
     50 H311        -3.6280    -0.8900     4.7740 h1         1 XLD       0.045367
     51 H312        -3.7430     0.1360     6.2040 h1         1 XLD       0.045367
     52 H313        -3.1770     0.8190     4.6770 h1         1 XLD       0.045367
     53 H341        -0.4870     2.7170     8.2040 h1         1 XLD       0.060700
     54 H342        -1.0020     1.4230     9.2730 h1         1 XLD       0.060700
     55 H351         1.3510     1.4390     7.3980 h1         1 XLD       0.060700
     56 H352         1.0200     0.2830     8.7010 h1         1 XLD       0.060700
@<TRIPOS>BOND
     1     1     2 ar  
     2     1     7 ar  
     3     1     8 1   
     4     2     3 ar  
     5     3     4 ar  
     6     3    37 1   
     7     4     5 1   
     8     4     6 ar  
     9     6     7 ar  
    10     6    38 1   
    11     7    39 1   
    12     8     9 1   
    13     8    40 1   
    14     9    10 2   
    15     9    11 1   
    16    11    12 ar  
    17    11    17 ar  
    18    12    13 ar  
    19    12    20 1   
    20    13    14 ar  
    21    13    18 1   
    22    14    15 ar  
    23    14    41 1   
    24    15    16 1   
    25    15    17 ar  
    26    17    42 1   
    27    18    19 1   
    28    19    43 1   
    29    19    44 1   
    30    19    45 1   
    31    20    21 1   
    32    20    46 1   
    33    21    22 2   
    34    21    23 1   
    35    23    24 1   
    36    23    27 2   
    37    24    25 1   
    38    25    26 2   
    39    25    47 1   
    40    26    27 1   
    41    26    29 1   
    42    27    28 1   
    43    29    30 1   
    44    29    48 1   
    45    29    49 1   
    46    30    31 1   
    47    30    32 1   
    48    31    50 1   
    49    31    51 1   
    50    31    52 1   
    51    32    33 2   
    52    32    36 1   
    53    33    34 1   
    54    34    35 1   
    55    34    53 1   
    56    34    54 1   
    57    35    36 1   
    58    35    55 1   
    59    35    56 1   
@<TRIPOS>SUBSTRUCTURE
     1 XLD         1 TEMP              0 ****  ****    0 ROOT
