@<TRIPOS>MOLECULE
XLD
   56    59     1     0     0
SMALL
No Charge or Current Charge


@<TRIPOS>ATOM
      1 C1          -2.1050     0.1180    -4.5140 ca         1 XLD       0.487900
      2 N2          -2.9180    -0.5620    -3.6800 nb         1 XLD      -0.671000
      3 C3          -4.2090    -0.7290    -4.0620 ca         1 XLD       0.389900
      4 C4          -4.7200    -0.2500    -5.2860 ca         1 XLD       0.023000
      5 Cl1         -6.4080    -0.5050    -5.7240 cl         1 XLD      -0.180000
      6 C5          -3.8560     0.4280    -6.1610 ca         1 XLD      -0.037000
      7 C6          -2.5180     0.6030    -5.7660 ca         1 XLD      -0.209000
      8 N7          -0.7660     0.2100    -4.1170 ns         1 XLD      -0.329900
      9 C9          -0.2220     0.4160    -2.8660 c          1 XLD       0.617700
     10 O10         -0.9200     0.6420    -1.8850 o          1 XLD      -0.499100
     11 C11          1.3070     0.4130    -2.8050 ca         1 XLD      -0.130600
     12 C12          2.0160     0.2810    -1.5730 ca         1 XLD      -0.037000
     13 C13          3.4340     0.3320    -1.5520 ca         1 XLD       0.167100
     14 C14          4.1510     0.4600    -2.7580 ca         1 XLD      -0.180000
     15 C15          3.4630     0.5540    -3.9700 ca         1 XLD       0.154000
     16 Cl2          4.3640     0.7230    -5.4710 cl         1 XLD      -0.190000
     17 C16          2.0630     0.5400    -3.9990 ca         1 XLD      -0.121000
     18 O17          4.0860     0.3020    -0.3310 os         1 XLD      -0.317100
     19 C18          5.5190     0.3350    -0.2120 c3         1 XLD       0.144900
     20 N19          1.2990     0.1160    -0.3560 ns         1 XLD      -0.160000
     21 C20          1.4560    -0.8140     0.6610 c          1 XLD       0.663700
     22 O21          2.2560    -1.7400     0.5910 o          1 XLD      -0.540100
     23 C22          0.5390    -0.5880     1.8010 cc         1 XLD      -0.285600
     24 S23         -0.6170     0.7340     1.8450 ss         1 XLD       0.248000
     25 C24         -1.1980     0.2140     3.4170 cc         1 XLD      -0.224000
     26 C25         -0.5250    -0.8980     3.8770 cd         1 XLD      -0.134300
     27 C26          0.4600    -1.3520     2.9450 cd         1 XLD       0.154000
     28 Cl3          1.4200    -2.7590     3.3080 cl         1 XLD      -0.134000
     29 C28         -0.7930    -1.5810     5.2040 c3         1 XLD       0.295100
     30 N29         -1.5000    -0.7330     6.1880 nh         1 XLD      -0.740600
     31 C31         -2.9420    -0.9950     6.3930 c3         1 XLD       0.218100
     32 C32         -0.8750     0.3490     6.7630 c2         1 XLD       0.791500
     33 N33         -1.5010     1.1990     7.4930 n2         1 XLD      -0.722900
     34 C34         -0.4520     2.1450     7.9520 c5         1 XLD       0.090800
     35 C35          0.7590     1.8040     7.0540 c5         1 XLD       0.121600
     36 O36          0.4730     0.4670     6.6200 os         1 XLD      -0.462600
     37 HC3         -4.8520    -1.2690    -3.3680 h4         1 XLD       0.040100
     38 HC5         -4.2120     0.8010    -7.1190 ha         1 XLD       0.135000
     39 HC6         -1.8120     1.1110    -6.4160 ha         1 XLD       0.126000
     40 HN7         -0.1040     0.0980    -4.8700 hn         1 XLD       0.160000
     41 H141         5.2350     0.5000    -2.7760 ha         1 XLD       0.139000
     42 H161         1.5820     0.6480    -4.9670 ha         1 XLD       0.139000
     43 H181         5.8130     0.2900     0.8440 h1         1 XLD       0.047700
     44 H182         5.9740    -0.5210    -0.7270 h1         1 XLD       0.047700
     45 H183         5.9260     1.2610    -0.6370 h1         1 XLD       0.047700
     46 H191         0.5360     0.7670    -0.2270 hn         1 XLD       0.160000
     47 H241        -1.9930     0.7730     3.8930 h4         1 XLD       0.163000
     48 H281        -1.3670    -2.4950     4.9980 h1         1 XLD       0.078700
     49 H282         0.1610    -1.9120     5.6370 h1         1 XLD       0.078700
     50 H311        -3.2690    -1.9010     5.8650 h1         1 XLD       0.045367
     51 H312        -3.1570    -1.1290     7.4610 h1         1 XLD       0.045367
     52 H313        -3.5390    -0.1520     6.0230 h1         1 XLD       0.045367
     53 H341        -0.7660     3.1900     7.8180 h1         1 XLD       0.060700
     54 H342        -0.2250     1.9870     9.0160 h1         1 XLD       0.060700
     55 H351         0.7980     2.4600     6.1730 h1         1 XLD       0.060700
     56 H352         1.7220     1.8440     7.5800 h1         1 XLD       0.060700
@<TRIPOS>BOND
     1     1     2 ar  
     2     1     7 ar  
     3     1     8 1   
     4     2     3 ar  
     5     3     4 ar  
     6     3    37 1   
     7     4     5 1   
     8     4     6 ar  
     9     6     7 ar  
    10     6    38 1   
    11     7    39 1   
    12     8     9 1   
    13     8    40 1   
    14     9    10 2   
    15     9    11 1   
    16    11    12 ar  
    17    11    17 ar  
    18    12    13 ar  
    19    12    20 1   
    20    13    14 ar  
    21    13    18 1   
    22    14    15 ar  
    23    14    41 1   
    24    15    16 1   
    25    15    17 ar  
    26    17    42 1   
    27    18    19 1   
    28    19    43 1   
    29    19    44 1   
    30    19    45 1   
    31    20    21 1   
    32    20    46 1   
    33    21    22 2   
    34    21    23 1   
    35    23    24 1   
    36    23    27 2   
    37    24    25 1   
    38    25    26 2   
    39    25    47 1   
    40    26    27 1   
    41    26    29 1   
    42    27    28 1   
    43    29    30 1   
    44    29    48 1   
    45    29    49 1   
    46    30    31 1   
    47    30    32 1   
    48    31    50 1   
    49    31    51 1   
    50    31    52 1   
    51    32    33 2   
    52    32    36 1   
    53    33    34 1   
    54    34    35 1   
    55    34    53 1   
    56    34    54 1   
    57    35    36 1   
    58    35    55 1   
    59    35    56 1   
@<TRIPOS>SUBSTRUCTURE
     1 XLD         1 TEMP              0 ****  ****    0 ROOT
