@<TRIPOS>MOLECULE
XLF
   20    20     1     0     0
SMALL
No Charge or Current Charge


@<TRIPOS>ATOM
      1 O4          28.6200    30.6720     2.8750 oh         1 XLF      -0.698000
      2 C4          27.2960    30.3950     3.3670 c5         1 XLF       0.103300
      3 C5          26.3600    31.6580     3.4180 c5         1 XLF       0.121600
      4 O5          25.7750    31.6850     4.7450 os         1 XLF      -0.454000
      5 C3          27.2980    29.9300     4.8640 c5         1 XLF       0.156300
      6 O3          27.5670    28.5220     5.0290 oh         1 XLF      -0.688000
      7 C2          25.8550    30.3620     5.2890 c5         1 XLF       0.349000
      8 O2          24.8350    29.5590     4.7140 oh         1 XLF      -0.741000
      9 C1          25.5760    30.3830     6.8260 c3         1 XLF       0.139600
     10 O1          24.1550    30.5360     7.0800 oh         1 XLF      -0.719000
     11 HO4         28.5500    30.8050     1.9000 ho         1 XLF       0.508000
     12 H4          26.8210    29.6260     2.7410 h1         1 XLF       0.054700
     13 H51         26.9060    32.5960     3.2500 h1         1 XLF       0.054700
     14 H52         25.5560    31.5850     2.6730 h1         1 XLF       0.054700
     15 H3          28.0300    30.5210     5.4330 h1         1 XLF       0.095700
     16 HO3         26.7470    28.0620     4.7270 ho         1 XLF       0.518000
     17 HO2         24.0960    29.7400     5.3510 ho         1 XLF       0.538000
     18 H11         25.9470    29.4480     7.2690 h1         1 XLF       0.046700
     19 H12         26.1440    31.2090     7.2750 h1         1 XLF       0.046700
     20 HO1         24.0490    30.7000     8.0480 ho         1 XLF       0.511000
@<TRIPOS>BOND
     1     1     2 1   
     2     1    11 1   
     3     2     3 1   
     4     2     5 1   
     5     2    12 1   
     6     3     4 1   
     7     3    13 1   
     8     3    14 1   
     9     4     7 1   
    10     5     6 1   
    11     5     7 1   
    12     5    15 1   
    13     6    16 1   
    14     7     8 1   
    15     7     9 1   
    16     8    17 1   
    17     9    10 1   
    18     9    18 1   
    19     9    19 1   
    20    10    20 1   
@<TRIPOS>SUBSTRUCTURE
     1 XLF         1 TEMP              0 ****  ****    0 ROOT
