@<TRIPOS>MOLECULE
XLF
   20    20     1     0     0
SMALL
bcc


@<TRIPOS>ATOM
      1 O4          28.5180    30.5550     2.9230 oh         1 XLF      -0.575800
      2 C4          27.2010    30.3900     3.3760 c5         1 XLF       0.080100
      3 C5          26.3960    31.6860     3.4730 c5         1 XLF       0.098400
      4 O5          25.5090    31.5300     4.5760 os         1 XLF      -0.407600
      5 C3          27.1830    29.9280     4.8270 c5         1 XLF       0.133100
      6 O3          27.5150    28.5960     5.0630 oh         1 XLF      -0.565800
      7 C2          25.7650    30.3260     5.2600 c5         1 XLF       0.302600
      8 O2          24.8980    29.3190     4.8420 oh         1 XLF      -0.618800
      9 C1          25.6410    30.5570     6.7580 c3         1 XLF       0.116400
     10 O1          24.2800    30.7630     7.0620 oh         1 XLF      -0.596800
     11 HO4         28.4970    30.7180     1.9740 ho         1 XLF       0.409000
     12 H4          26.6620    29.6580     2.7570 h1         1 XLF       0.054700
     13 H51         27.0740    32.5260     3.6590 h1         1 XLF       0.054700
     14 H52         25.8250    31.9040     2.5680 h1         1 XLF       0.054700
     15 H3          27.9030    30.5380     5.3870 h1         1 XLF       0.095700
     16 HO3         26.8070    28.0440     4.7120 ho         1 XLF       0.419000
     17 HO2         24.0890    29.3720     5.3680 ho         1 XLF       0.439000
     18 H11         26.0410    29.6770     7.2740 h1         1 XLF       0.046700
     19 H12         26.2610    31.4150     7.0440 h1         1 XLF       0.046700
     20 HO1         24.1180    30.4910     7.9690 ho         1 XLF       0.412000
@<TRIPOS>BOND
     1     1     2 1   
     2     1    11 1   
     3     2     3 1   
     4     2     5 1   
     5     2    12 1   
     6     3     4 1   
     7     3    13 1   
     8     3    14 1   
     9     4     7 1   
    10     5     6 1   
    11     5     7 1   
    12     5    15 1   
    13     6    16 1   
    14     7     8 1   
    15     7     9 1   
    16     8    17 1   
    17     9    10 1   
    18     9    18 1   
    19     9    19 1   
    20    10    20 1   
@<TRIPOS>SUBSTRUCTURE
     1 XLF         1 TEMP              0 ****  ****    0 ROOT
