@<TRIPOS>MOLECULE
XLI
   89    88     1     0     0
SMALL
abcg2


@<TRIPOS>ATOM
      1 C            7.2610    -0.1350     0.4490 c          1 XLI       0.613100
      2 O            7.0550    -1.2000     1.0100 o          1 XLI      -0.586100
      3 CH3          8.5100     0.6700     0.7220 c3         1 XLI      -0.182100
      4 N            6.4250     0.4190    -0.4520 ns         1 XLI      -0.497900
      5 CA           5.1110    -0.0520    -0.8060 c3         1 XLI       0.050700
      6 C1           4.0990     0.2510     0.3040 c          1 XLI       0.582100
      7 O1           4.4240     0.4570     1.4600 o          1 XLI      -0.585100
      8 CB           5.0400    -1.5310    -1.2150 c3         1 XLI      -0.078400
      9 CG           6.0350    -1.9390    -2.3010 c3         1 XLI      -0.055700
     10 CD1          5.8960    -3.4330    -2.5770 c3         1 XLI      -0.089600
     11 CD2          5.8470    -1.1370    -3.5850 c3         1 XLI      -0.089600
     12 N1           2.8240     0.2660    -0.1280 ns         1 XLI      -0.503900
     13 CA1          1.6770     0.4170     0.7250 c3         1 XLI       0.030700
     14 C2           0.5800    -0.5330     0.2420 c          1 XLI       0.590100
     15 O2           0.5880    -0.9920    -0.8880 o          1 XLI      -0.601100
     16 CB1          1.1140     1.8500     0.7290 c3         1 XLI      -0.078400
     17 CG1          2.1370     2.8830     1.1710 c3         1 XLI       0.068600
     18 SD           1.3330     4.5070     1.2800 ss         1 XLI      -0.451000
     19 CE           2.7610     5.5280     1.6990 c3         1 XLI       0.046900
     20 N2          -0.3970    -0.7460     1.1380 ns         1 XLI      -0.509900
     21 CA2         -1.5910    -1.5380     0.8940 c3         1 XLI       0.081700
     22 C3          -2.7980    -0.6360     0.5880 c3         1 XLI       0.150300
     23 O3          -3.1520     0.1630     1.6970 oh         1 XLI      -0.662000
     24 CB2         -1.8130    -2.4630     2.0920 c3         1 XLI      -0.081400
     25 CG2         -3.0580    -3.3510     2.0320 c3         1 XLI      -0.058700
     26 CD11        -3.1250    -4.1750     0.7500 c3         1 XLI      -0.091600
     27 CD21        -3.0870    -4.2660     3.2530 c3         1 XLI      -0.091600
     28 CM          -2.5910     0.1910    -0.6780 c3         1 XLI      -0.103400
     29 CA3         -3.7620     1.1110    -1.0390 c3         1 XLI      -0.135700
     30 CB3         -3.4300     1.9420    -2.2730 c3         1 XLI      -0.081100
     31 C4          -5.0210     0.2940    -1.2770 c          1 XLI       0.597100
     32 O4          -5.1940    -0.3340    -2.3150 o          1 XLI      -0.609100
     33 C11         -7.1970    -0.3540    -0.3260 c3         1 XLI       0.103000
     34 N3          -5.9070     0.2950    -0.2680 ns         1 XLI      -0.504900
     35 C21         -8.2930     0.5610    -0.8620 c3         1 XLI      -0.101400
     36 C31         -9.6460    -0.1340    -0.9440 c3         1 XLI      -0.072400
     37 C41        -10.7450     0.7880    -1.4520 c3         1 XLI      -0.088100
     38 H1           9.3790     0.0150     0.7050 hc         1 XLI       0.059367
     39 H2           8.6720     1.4840     0.0170 hc         1 XLI       0.059367
     40 H3           8.4450     1.0990     1.7240 hc         1 XLI       0.059367
     41 H            6.6770     1.3220    -0.8180 hn         1 XLI       0.309500
     42 HA           4.8160     0.5430    -1.6740 h1         1 XLI       0.054700
     43 HB2          5.1730    -2.1660    -0.3390 hc         1 XLI       0.064700
     44 HB3          4.0270    -1.7260    -1.5830 hc         1 XLI       0.064700
     45 HG           7.0490    -1.7600    -1.9320 hc         1 XLI       0.056700
     46 HD11         4.8960    -3.6710    -2.9480 hc         1 XLI       0.033200
     47 HD12         6.6150    -3.7640    -3.3280 hc         1 XLI       0.033200
     48 HD13         6.0630    -4.0220    -1.6730 hc         1 XLI       0.033200
     49 HD21         6.5300    -1.4850    -4.3630 hc         1 XLI       0.033200
     50 HD22         4.8300    -1.2460    -3.9690 hc         1 XLI       0.033200
     51 HD23         6.0380    -0.0730    -3.4430 hc         1 XLI       0.033200
     52 H4           2.6370     0.0940    -1.1040 hn         1 XLI       0.334500
     53 HA1          1.9710     0.1560     1.7450 h1         1 XLI       0.090700
     54 HB21         0.7420     2.1000    -0.2700 hc         1 XLI       0.058200
     55 HB31         0.2560     1.8790     1.4060 hc         1 XLI       0.058200
     56 HG2          2.5530     2.6180     2.1450 h1         1 XLI       0.068200
     57 HG3          2.9580     2.9470     0.4560 h1         1 XLI       0.068200
     58 HE1          3.2030     5.2200     2.6460 h1         1 XLI       0.060700
     59 HE2          3.5170     5.4880     0.9160 h1         1 XLI       0.060700
     60 HE3          2.4140     6.5550     1.7960 h1         1 XLI       0.060700
     61 H5          -0.2520    -0.4100     2.0780 hn         1 XLI       0.314500
     62 HA2         -1.4000    -2.1450     0.0070 h1         1 XLI       0.090700
     63 HB22        -0.9290    -3.1030     2.1800 hc         1 XLI       0.046700
     64 HB32        -1.8530    -1.8660     3.0090 hc         1 XLI       0.046700
     65 HG1         -3.9470    -2.7130     2.0820 hc         1 XLI       0.054700
     66 HD14        -2.2350    -4.8020     0.6440 hc         1 XLI       0.035367
     67 HD15        -3.9950    -4.8330     0.7560 hc         1 XLI       0.035367
     68 HD16        -3.1990    -3.5530    -0.1440 hc         1 XLI       0.035367
     69 HD24        -3.0540    -3.6940     4.1820 hc         1 XLI       0.035367
     70 HD25        -3.9940    -4.8730     3.2670 hc         1 XLI       0.035367
     71 HD26        -2.2310    -4.9450     3.2490 hc         1 XLI       0.035367
     72 H51         -3.6530    -1.3010     0.4300 h1         1 XLI       0.088700
     73 H52         -2.4640     0.8240     1.8340 ho         1 XLI       0.438000
     74 HM2         -1.7020     0.8220    -0.5760 hc         1 XLI       0.062200
     75 HM3         -2.3940    -0.4860    -1.5130 hc         1 XLI       0.062200
     76 HA3         -3.9300     1.8000    -0.2060 hc         1 XLI       0.052700
     77 HB1         -4.2290     2.6470    -2.5070 hc         1 XLI       0.044033
     78 HB23        -2.5200     2.5200    -2.1060 hc         1 XLI       0.044033
     79 HB33        -3.2690     1.3110    -3.1470 hc         1 XLI       0.044033
     80 H11         -7.1170    -1.2470    -0.9460 h1         1 XLI       0.053200
     81 H12         -7.4520    -0.6900     0.6810 h1         1 XLI       0.053200
     82 HN2         -5.6880     0.8350     0.5540 hn         1 XLI       0.318500
     83 H21         -8.3700     1.4420    -0.2170 hc         1 XLI       0.045700
     84 H22         -8.0040     0.9250    -1.8520 hc         1 XLI       0.045700
     85 H31         -9.5680    -1.0060    -1.5990 hc         1 XLI       0.038200
     86 H32         -9.9210    -0.5180     0.0430 hc         1 XLI       0.038200
     87 H41        -11.7010     0.2690    -1.5230 hc         1 XLI       0.032367
     88 H42        -10.8810     1.6430    -0.7870 hc         1 XLI       0.032367
     89 H43        -10.5060     1.1790    -2.4430 hc         1 XLI       0.032367
@<TRIPOS>BOND
     1     1     2 2   
     2     1     3 1   
     3     1     4 1   
     4     3    38 1   
     5     3    39 1   
     6     3    40 1   
     7     4     5 1   
     8     4    41 1   
     9     5     6 1   
    10     5     8 1   
    11     5    42 1   
    12     6     7 2   
    13     6    12 1   
    14     8     9 1   
    15     8    43 1   
    16     8    44 1   
    17     9    10 1   
    18     9    11 1   
    19     9    45 1   
    20    10    46 1   
    21    10    47 1   
    22    10    48 1   
    23    11    49 1   
    24    11    50 1   
    25    11    51 1   
    26    12    13 1   
    27    12    52 1   
    28    13    14 1   
    29    13    16 1   
    30    13    53 1   
    31    14    15 2   
    32    14    20 1   
    33    16    17 1   
    34    16    54 1   
    35    16    55 1   
    36    17    18 1   
    37    17    56 1   
    38    17    57 1   
    39    18    19 1   
    40    19    58 1   
    41    19    59 1   
    42    19    60 1   
    43    20    21 1   
    44    20    61 1   
    45    21    22 1   
    46    21    24 1   
    47    21    62 1   
    48    22    23 1   
    49    22    28 1   
    50    22    72 1   
    51    23    73 1   
    52    24    25 1   
    53    24    63 1   
    54    24    64 1   
    55    25    26 1   
    56    25    27 1   
    57    25    65 1   
    58    26    66 1   
    59    26    67 1   
    60    26    68 1   
    61    27    69 1   
    62    27    70 1   
    63    27    71 1   
    64    28    29 1   
    65    28    74 1   
    66    28    75 1   
    67    29    30 1   
    68    29    31 1   
    69    29    76 1   
    70    30    77 1   
    71    30    78 1   
    72    30    79 1   
    73    31    32 2   
    74    31    34 1   
    75    33    34 1   
    76    33    35 1   
    77    33    80 1   
    78    33    81 1   
    79    34    82 1   
    80    35    36 1   
    81    35    83 1   
    82    35    84 1   
    83    36    37 1   
    84    36    85 1   
    85    36    86 1   
    86    37    87 1   
    87    37    88 1   
    88    37    89 1   
@<TRIPOS>SUBSTRUCTURE
     1 XLI         1 TEMP              0 ****  ****    0 ROOT
