@<TRIPOS>MOLECULE
XLI
   89    88     1     0     0
SMALL
No Charge or Current Charge


@<TRIPOS>ATOM
      1 C            7.1960    -1.0110     0.3820 c          1 XLI       0.613100
      2 O            6.5660    -1.9960     0.7350 o          1 XLI      -0.586100
      3 CH3          8.6620    -0.8120     0.7400 c3         1 XLI      -0.182100
      4 N            6.6490     0.0080    -0.3710 ns         1 XLI      -0.497900
      5 CA           5.2480     0.0730    -0.8580 c3         1 XLI       0.050700
      6 C1           4.2450     0.3370     0.3150 c          1 XLI       0.582100
      7 O1           4.5960     0.5520     1.4690 o          1 XLI      -0.585100
      8 CB           4.8480    -1.1350    -1.7640 c3         1 XLI      -0.078400
      9 CG           5.8490    -1.4880    -2.9030 c3         1 XLI      -0.055700
     10 CD1          5.3970    -2.7580    -3.6590 c3         1 XLI      -0.089600
     11 CD2          6.0700    -0.3140    -3.8860 c3         1 XLI      -0.089600
     12 N1           2.9090     0.3230    -0.0340 ns         1 XLI      -0.503900
     13 CA1          1.7740     0.5190     0.9000 c3         1 XLI       0.030700
     14 C2           0.5830    -0.3930     0.4860 c          1 XLI       0.590100
     15 O2           0.5240    -0.9590    -0.5990 o          1 XLI      -0.601100
     16 CB1          1.3390     2.0080     0.9620 c3         1 XLI      -0.078400
     17 CG1          2.4370     2.9740     1.4540 c3         1 XLI       0.068600
     18 SD           1.7680     4.6940     1.5800 ss         1 XLI      -0.451000
     19 CE           3.2830     5.5790     2.1680 c3         1 XLI       0.046900
     20 N2          -0.4130    -0.5240     1.4340 ns         1 XLI      -0.509900
     21 CA2         -1.6360    -1.3290     1.2690 c3         1 XLI       0.081700
     22 C3          -2.8650    -0.4570     0.8470 c3         1 XLI       0.150300
     23 O3          -3.1620     0.5140     1.8620 oh         1 XLI      -0.662000
     24 CB2         -1.8630    -2.1740     2.5550 c3         1 XLI      -0.081400
     25 CG2         -3.0640    -3.1630     2.5320 c3         1 XLI      -0.058700
     26 CD11        -2.9940    -4.1720     1.3600 c3         1 XLI      -0.091600
     27 CD21        -3.1890    -3.9030     3.8830 c3         1 XLI      -0.091600
     28 CM          -2.6620     0.2750    -0.5080 c3         1 XLI      -0.103400
     29 CA3         -3.9090     1.0550    -1.0180 c3         1 XLI      -0.135700
     30 CB3         -3.6350     1.7580    -2.3690 c3         1 XLI      -0.081100
     31 C4          -5.1540     0.1470    -1.1130 c          1 XLI       0.597100
     32 O4          -5.2110    -0.8220    -1.8580 o          1 XLI      -0.609100
     33 C11         -7.4790    -0.2030    -0.2100 c3         1 XLI       0.103000
     34 N3          -6.1950     0.4960    -0.2830 ns         1 XLI      -0.504900
     35 C21         -8.4130     0.1760    -1.3770 c3         1 XLI      -0.101400
     36 C31         -9.7810    -0.5370    -1.3070 c3         1 XLI      -0.072400
     37 C41        -10.7180    -0.1610    -2.4720 c3         1 XLI      -0.088100
     38 H1           9.0670    -1.6380     1.3360 hc         1 XLI       0.059367
     39 H2           9.2360    -0.6570    -0.1800 hc         1 XLI       0.059367
     40 H3           8.7770     0.1500     1.2520 hc         1 XLI       0.059367
     41 H            7.2680     0.7800    -0.5900 hn         1 XLI       0.309500
     42 HA           5.1820     0.9710    -1.4850 h1         1 XLI       0.054700
     43 HB2          4.7070    -2.0190    -1.1310 hc         1 XLI       0.064700
     44 HB3          3.8710    -0.9340    -2.2210 hc         1 XLI       0.064700
     45 HG           6.8190    -1.7220    -2.4470 hc         1 XLI       0.056700
     46 HD11         4.4310    -2.5970    -4.1520 hc         1 XLI       0.033200
     47 HD12         6.1320    -3.0350    -4.4250 hc         1 XLI       0.033200
     48 HD13         5.2950    -3.6040    -2.9690 hc         1 XLI       0.033200
     49 HD21         6.7580    -0.6070    -4.6890 hc         1 XLI       0.033200
     50 HD22         5.1230    -0.0030    -4.3440 hc         1 XLI       0.033200
     51 HD23         6.5080     0.5530    -3.3780 hc         1 XLI       0.033200
     52 H4           2.6890     0.1110    -1.0020 hn         1 XLI       0.334500
     53 HA1          2.0790     0.1950     1.9040 h1         1 XLI       0.090700
     54 HB21         1.0020     2.3270    -0.0320 hc         1 XLI       0.058200
     55 HB31         0.4760     2.1030     1.6320 hc         1 XLI       0.058200
     56 HG2          2.8000     2.6540     2.4400 h1         1 XLI       0.068200
     57 HG3          3.2820     2.9720     0.7530 h1         1 XLI       0.068200
     58 HE1          3.6130     5.1600     3.1280 h1         1 XLI       0.060700
     59 HE2          4.0900     5.4700     1.4320 h1         1 XLI       0.060700
     60 HE3          3.0610     6.6460     2.3010 h1         1 XLI       0.060700
     61 H5          -0.2640    -0.0540     2.3200 hn         1 XLI       0.314500
     62 HA2         -1.4560    -2.0400     0.4520 h1         1 XLI       0.090700
     63 HB22        -0.9480    -2.7460     2.7540 hc         1 XLI       0.046700
     64 HB32        -1.9870    -1.4930     3.4060 hc         1 XLI       0.046700
     65 HG1         -3.9860    -2.5810     2.4120 hc         1 XLI       0.054700
     66 HD14        -2.0570    -4.7420     1.3910 hc         1 XLI       0.035367
     67 HD15        -3.8270    -4.8830     1.4120 hc         1 XLI       0.035367
     68 HD16        -3.0570    -3.6620     0.3920 hc         1 XLI       0.035367
     69 HD24        -3.2940    -3.1890     4.7090 hc         1 XLI       0.035367
     70 HD25        -4.0710    -4.5560     3.8890 hc         1 XLI       0.035367
     71 HD26        -2.3040    -4.5220     4.0740 hc         1 XLI       0.035367
     72 H51         -3.7180    -1.1380     0.7250 h1         1 XLI       0.088700
     73 H52         -2.3980     1.1280     1.9000 ho         1 XLI       0.438000
     74 HM2         -1.8190     0.9720    -0.4270 hc         1 XLI       0.062200
     75 HM3         -2.3770    -0.4670    -1.2640 hc         1 XLI       0.062200
     76 HA3         -4.1250     1.8470    -0.2910 hc         1 XLI       0.052700
     77 HB1         -4.5140     2.3300    -2.6910 hc         1 XLI       0.044033
     78 HB23        -2.7910     2.4540    -2.2810 hc         1 XLI       0.044033
     79 HB33        -3.3960     1.0270    -3.1510 hc         1 XLI       0.044033
     80 H11         -7.2990    -1.2860    -0.2150 h1         1 XLI       0.053200
     81 H12         -7.9620     0.0540     0.7430 h1         1 XLI       0.053200
     82 HN2         -6.0470     1.3000     0.3170 hn         1 XLI       0.318500
     83 H21         -8.5710     1.2620    -1.3720 hc         1 XLI       0.045700
     84 H22         -7.9260    -0.0730    -2.3280 hc         1 XLI       0.045700
     85 H31         -9.6260    -1.6230    -1.3110 hc         1 XLI       0.038200
     86 H32        -10.2730    -0.2870    -0.3590 hc         1 XLI       0.038200
     87 H41        -11.6740    -0.6900    -2.3790 hc         1 XLI       0.032367
     88 H42        -10.9210     0.9170    -2.4740 hc         1 XLI       0.032367
     89 H43        -10.2670    -0.4310    -3.4350 hc         1 XLI       0.032367
@<TRIPOS>BOND
     1     1     2 2   
     2     1     3 1   
     3     1     4 1   
     4     3    38 1   
     5     3    39 1   
     6     3    40 1   
     7     4     5 1   
     8     4    41 1   
     9     5     6 1   
    10     5     8 1   
    11     5    42 1   
    12     6     7 2   
    13     6    12 1   
    14     8     9 1   
    15     8    43 1   
    16     8    44 1   
    17     9    10 1   
    18     9    11 1   
    19     9    45 1   
    20    10    46 1   
    21    10    47 1   
    22    10    48 1   
    23    11    49 1   
    24    11    50 1   
    25    11    51 1   
    26    12    13 1   
    27    12    52 1   
    28    13    14 1   
    29    13    16 1   
    30    13    53 1   
    31    14    15 2   
    32    14    20 1   
    33    16    17 1   
    34    16    54 1   
    35    16    55 1   
    36    17    18 1   
    37    17    56 1   
    38    17    57 1   
    39    18    19 1   
    40    19    58 1   
    41    19    59 1   
    42    19    60 1   
    43    20    21 1   
    44    20    61 1   
    45    21    22 1   
    46    21    24 1   
    47    21    62 1   
    48    22    23 1   
    49    22    28 1   
    50    22    72 1   
    51    23    73 1   
    52    24    25 1   
    53    24    63 1   
    54    24    64 1   
    55    25    26 1   
    56    25    27 1   
    57    25    65 1   
    58    26    66 1   
    59    26    67 1   
    60    26    68 1   
    61    27    69 1   
    62    27    70 1   
    63    27    71 1   
    64    28    29 1   
    65    28    74 1   
    66    28    75 1   
    67    29    30 1   
    68    29    31 1   
    69    29    76 1   
    70    30    77 1   
    71    30    78 1   
    72    30    79 1   
    73    31    32 2   
    74    31    34 1   
    75    33    34 1   
    76    33    35 1   
    77    33    80 1   
    78    33    81 1   
    79    34    82 1   
    80    35    36 1   
    81    35    83 1   
    82    35    84 1   
    83    36    37 1   
    84    36    85 1   
    85    36    86 1   
    86    37    87 1   
    87    37    88 1   
    88    37    89 1   
@<TRIPOS>SUBSTRUCTURE
     1 XLI         1 TEMP              0 ****  ****    0 ROOT
