@<TRIPOS>MOLECULE
XLJ
   27    28     1     0     0
SMALL
No Charge or Current Charge


@<TRIPOS>ATOM
      1 C1          25.5160    45.2080     0.0780 c3         1 XLJ      -0.087100
      2 C2          26.3240    43.9640    -0.3580 c3         1 XLJ       0.011500
      3 C3          25.8510    42.7080     0.4300 c3         1 XLJ       0.154800
      4 N1          26.3810    41.4280    -0.0910 n8         1 XLJ      -0.991200
      5 C4          27.8190    44.2060    -0.2460 cc         1 XLJ      -0.113400
      6 C5          28.4850    44.9880     0.6980 cd         1 XLJ      -0.157100
      7 N2          29.8800    44.9490     0.4590 na         1 XLJ      -0.235700
      8 C6          30.0530    44.1370    -0.6450 ca         1 XLJ      -0.043200
      9 C7          31.2570    43.7980    -1.2770 ca         1 XLJ      -0.131000
     10 C8          31.2020    42.9540    -2.4070 ca         1 XLJ      -0.093000
     11 C9          29.9570    42.4750    -2.8770 ca         1 XLJ      -0.146000
     12 C10         28.7600    42.8340    -2.2210 ca         1 XLJ      -0.056000
     13 C11         28.8500    43.6710    -1.0970 ca         1 XLJ      -0.082800
     14 H1          24.4460    45.0600    -0.1140 hc         1 XLJ       0.034033
     15 H2          25.6440    45.4070     1.1490 hc         1 XLJ       0.034033
     16 H3          25.8400    46.0940    -0.4810 hc         1 XLJ       0.034033
     17 H4          26.0840    43.7980    -1.4160 hc         1 XLJ       0.047700
     18 H5          26.1490    42.8060     1.4830 h1         1 XLJ       0.026200
     19 H6          24.7540    42.6530     0.3940 h1         1 XLJ       0.026200
     20 H7          25.9650    40.6540     0.4390 hn         1 XLJ       0.389500
     21 H8          26.0310    41.2850    -1.0440 hn         1 XLJ       0.389500
     22 H10         28.0690    45.5630     1.5220 h4         1 XLJ       0.208000
     23 H11         30.6060    45.4220     0.9890 hn         1 XLJ       0.347000
     24 H12         32.2090    44.1750    -0.9100 ha         1 XLJ       0.110000
     25 H13         32.1200    42.6730    -2.9190 ha         1 XLJ       0.108000
     26 H14         29.9210    41.8270    -3.7500 ha         1 XLJ       0.107000
     27 H15         27.8000    42.4730    -2.5780 ha         1 XLJ       0.109000
@<TRIPOS>BOND
     1     1     2 1   
     2     1    14 1   
     3     1    15 1   
     4     1    16 1   
     5     2     3 1   
     6     2     5 1   
     7     2    17 1   
     8     3     4 1   
     9     3    18 1   
    10     3    19 1   
    11     4    20 1   
    12     4    21 1   
    13     5     6 2   
    14     5    13 1   
    15     6     7 1   
    16     6    22 1   
    17     7     8 1   
    18     7    23 1   
    19     8     9 ar  
    20     8    13 ar  
    21     9    10 ar  
    22     9    24 1   
    23    10    11 ar  
    24    10    25 1   
    25    11    12 ar  
    26    11    26 1   
    27    12    13 ar  
    28    12    27 1   
@<TRIPOS>SUBSTRUCTURE
     1 XLJ         1 TEMP              0 ****  ****    0 ROOT
