@<TRIPOS>MOLECULE
XLJ
   27    28     1     0     0
SMALL
abcg2


@<TRIPOS>ATOM
      1 C1          25.5310    45.2040    -0.0900 c3         1 XLJ      -0.087100
      2 C2          26.3140    43.9160    -0.3700 c3         1 XLJ       0.011500
      3 C3          25.7860    42.7830     0.5240 c3         1 XLJ       0.154800
      4 N1          26.4090    41.4940     0.2050 n8         1 XLJ      -0.991200
      5 C4          27.7990    44.1160    -0.2390 cc         1 XLJ      -0.113400
      6 C5          28.4640    44.7710     0.7670 cd         1 XLJ      -0.157100
      7 N2          29.8250    44.7370     0.5370 na         1 XLJ      -0.235700
      8 C6          30.0700    44.0620    -0.6320 ca         1 XLJ      -0.043200
      9 C7          31.2710    43.7780    -1.2830 ca         1 XLJ      -0.131000
     10 C8          31.2050    43.0680    -2.4720 ca         1 XLJ      -0.093000
     11 C9          29.9700    42.6480    -3.0020 ca         1 XLJ      -0.146000
     12 C10         28.7790    42.9320    -2.3540 ca         1 XLJ      -0.056000
     13 C11         28.8110    43.6510    -1.1500 ca         1 XLJ      -0.082800
     14 H1          24.4620    45.0510    -0.2520 hc         1 XLJ       0.034033
     15 H2          25.6710    45.5280     0.9440 hc         1 XLJ       0.034033
     16 H3          25.8660    46.0110    -0.7440 hc         1 XLJ       0.034033
     17 H4          26.1130    43.6210    -1.4060 hc         1 XLJ       0.047700
     18 H5          26.0120    43.0240     1.5670 h1         1 XLJ       0.026200
     19 H6          24.6920    42.7580     0.4270 h1         1 XLJ       0.026200
     20 H7          26.0150    40.7690     0.7960 hn         1 XLJ       0.389500
     21 H8          26.1770    41.2340    -0.7500 hn         1 XLJ       0.389500
     22 H10         28.0770    45.2710     1.6390 h4         1 XLJ       0.208000
     23 H11         30.5220    45.1590     1.1270 hn         1 XLJ       0.347000
     24 H12         32.2200    44.1010    -0.8730 ha         1 XLJ       0.110000
     25 H13         32.1190    42.8300    -3.0010 ha         1 XLJ       0.108000
     26 H14         29.9560    42.0930    -3.9320 ha         1 XLJ       0.107000
     27 H15         27.8350    42.6010    -2.7710 ha         1 XLJ       0.109000
@<TRIPOS>BOND
     1     1     2 1   
     2     1    14 1   
     3     1    15 1   
     4     1    16 1   
     5     2     3 1   
     6     2     5 1   
     7     2    17 1   
     8     3     4 1   
     9     3    18 1   
    10     3    19 1   
    11     4    20 1   
    12     4    21 1   
    13     5     6 2   
    14     5    13 1   
    15     6     7 1   
    16     6    22 1   
    17     7     8 1   
    18     7    23 1   
    19     8     9 ar  
    20     8    13 ar  
    21     9    10 ar  
    22     9    24 1   
    23    10    11 ar  
    24    10    25 1   
    25    11    12 ar  
    26    11    26 1   
    27    12    13 ar  
    28    12    27 1   
@<TRIPOS>SUBSTRUCTURE
     1 XLJ         1 TEMP              0 ****  ****    0 ROOT
