@<TRIPOS>MOLECULE
XLK
   70    73     1     0     0
SMALL
No Charge or Current Charge


@<TRIPOS>ATOM
      1 C4         -66.0460    -7.9380   -20.8240 c3         1 XLK      -0.068400
      2 C14        -74.5490    -7.0430   -17.2110 c6         1 XLK      -0.045700
      3 C5         -66.8240    -7.0920   -19.7660 c3         1 XLK      -0.045700
      4 C6         -66.7670    -5.5820   -20.1180 c3         1 XLK      -0.087100
      5 C11        -71.6060    -7.6480   -17.5990 c6         1 XLK      -0.042700
      6 C7         -68.2850    -7.6350   -19.5540 c5         1 XLK      -0.053700
      7 C8         -68.3210    -9.1340   -19.0690 c5         1 XLK      -0.077400
      8 C9         -69.6500    -9.3070   -18.2710 c5         1 XLK      -0.069400
      9 C10        -70.3990    -7.9740   -18.5280 c5         1 XLK      -0.066700
     10 C12        -72.6850    -8.7660   -17.6750 c6         1 XLK      -0.070400
     11 C13        -73.9380    -8.4230   -16.8330 c6         1 XLK      -0.068400
     12 C3         -64.5350    -7.6100   -20.9560 c3         1 XLK      -0.182400
     13 C1         -63.0940    -9.7870   -20.9460 c3         1 XLK       0.078600
     14 C15        -75.2290    -7.1070   -18.6190 c6         1 XLK      -0.108400
     15 C16        -75.8670    -5.7570   -19.0170 c6         1 XLK       0.169300
     16 C17        -74.8180    -4.6240   -18.9620 c6         1 XLK      -0.072400
     17 C18        -74.1760    -4.5490   -17.5550 c6         1 XLK      -0.070400
     18 C19        -73.4820    -5.8830   -17.0970 c6         1 XLK      -0.034000
     19 C2         -63.7960    -8.6850   -21.7670 c          1 XLK       0.536100
     20 C20        -73.0870    -5.6760   -15.5910 c3         1 XLK      -0.085100
     21 C21        -72.2110    -6.2480   -17.9830 c6         1 XLK      -0.043700
     22 C22        -71.0940    -5.1450   -17.9850 c6         1 XLK      -0.105400
     23 C23        -69.8650    -5.5010   -18.8760 c6         1 XLK       0.180300
     24 C24        -69.2440    -6.9130   -18.4930 c5         1 XLK      -0.030000
     25 C25        -68.5430    -6.7580   -17.0960 c3         1 XLK      -0.084100
     26 O1         -63.7890    -8.6590   -22.9940 o          1 XLK      -0.486100
     27 O2         -76.4220    -5.8450   -20.3320 oh         1 XLK      -0.667000
     28 O3         -70.2400    -5.4540   -20.2580 oh         1 XLK      -0.668000
     29 H1         -66.5270    -7.8270   -21.8040 hc         1 XLK       0.050200
     30 H2         -66.1270    -8.9990   -20.5620 hc         1 XLK       0.050200
     31 H3         -75.3500    -6.8380   -16.4870 hc         1 XLK       0.042700
     32 H4         -66.2880    -7.2100   -18.8160 hc         1 XLK       0.039700
     33 H5         -67.1120    -4.9710   -19.2800 hc         1 XLK       0.035700
     34 H6         -65.7450    -5.2500   -20.3240 hc         1 XLK       0.035700
     35 H7         -67.3830    -5.3600   -20.9980 hc         1 XLK       0.035700
     36 H8         -71.2350    -7.6160   -16.5670 hc         1 XLK       0.046700
     37 H9         -68.7490    -7.5860   -20.5470 hc         1 XLK       0.070700
     38 H10        -68.2820    -9.8230   -19.9200 hc         1 XLK       0.038200
     39 H11        -67.4630    -9.3790   -18.4320 hc         1 XLK       0.038200
     40 H12        -70.2220   -10.1730   -18.6230 hc         1 XLK       0.041200
     41 H13        -69.4600    -9.4690   -17.2040 hc         1 XLK       0.041200
     42 H14        -70.8420    -8.0160   -19.5310 hc         1 XLK       0.063700
     43 H15        -72.9700    -8.9470   -18.7190 hc         1 XLK       0.040700
     44 H16        -72.2670    -9.7130   -17.3090 hc         1 XLK       0.040700
     45 H17        -74.6910    -9.2120   -16.9620 hc         1 XLK       0.039700
     46 H18        -73.6780    -8.4410   -15.7670 hc         1 XLK       0.039700
     47 H19        -64.1170    -7.5740   -19.9420 hc         1 XLK       0.063700
     48 H20        -64.4100    -6.6450   -21.4600 hc         1 XLK       0.063700
     49 H21        -62.2980    -9.3230   -20.3510 h1         1 XLK       0.062200
     50 H22        -63.8270   -10.2340   -20.2640 h1         1 XLK       0.062200
     51 H24        -76.0060    -7.8840   -18.6100 hc         1 XLK       0.047700
     52 H25        -74.5120    -7.4080   -19.3930 hc         1 XLK       0.047700
     53 H26        -76.6640    -5.5240   -18.2950 h1         1 XLK       0.027700
     54 H27        -74.0490    -4.7730   -19.7310 hc         1 XLK       0.053200
     55 H28        -75.3010    -3.6660   -19.1930 hc         1 XLK       0.053200
     56 H29        -73.4790    -3.7030   -17.5110 hc         1 XLK       0.040200
     57 H30        -74.9690    -4.2930   -16.8380 hc         1 XLK       0.040200
     58 H31        -73.9760    -5.5210   -14.9680 hc         1 XLK       0.033700
     59 H32        -72.5480    -6.5260   -15.1620 hc         1 XLK       0.033700
     60 H33        -72.4540    -4.7910   -15.4550 hc         1 XLK       0.033700
     61 H34        -72.5460    -6.3400   -19.0240 hc         1 XLK       0.056700
     62 H35        -70.7490    -4.9530   -16.9620 hc         1 XLK       0.043200
     63 H36        -71.5010    -4.1910   -18.3390 hc         1 XLK       0.043200
     64 H37        -69.1160    -4.7190   -18.6930 h1         1 XLK       0.033700
     65 H38        -69.2470    -6.5120   -16.2950 hc         1 XLK       0.034700
     66 H39        -68.0120    -7.6620   -16.7810 hc         1 XLK       0.034700
     67 H40        -67.7970    -5.9550   -17.1210 hc         1 XLK       0.034700
     68 H41        -77.1020    -6.5540   -20.3020 ho         1 XLK       0.439000
     69 H42        -70.6100    -4.5600   -20.4170 ho         1 XLK       0.440000
     70 F1         -62.5530   -10.7710   -21.7170 f          1 XLK      -0.246000
@<TRIPOS>BOND
     1     1     3 1   
     2     1    12 1   
     3     1    29 1   
     4     1    30 1   
     5     2    11 1   
     6     2    14 1   
     7     2    18 1   
     8     2    31 1   
     9     3     4 1   
    10     3     6 1   
    11     3    32 1   
    12     4    33 1   
    13     4    34 1   
    14     4    35 1   
    15     5     9 1   
    16     5    10 1   
    17     5    21 1   
    18     5    36 1   
    19     6     7 1   
    20     6    24 1   
    21     6    37 1   
    22     7     8 1   
    23     7    38 1   
    24     7    39 1   
    25     8     9 1   
    26     8    40 1   
    27     8    41 1   
    28     9    24 1   
    29     9    42 1   
    30    10    11 1   
    31    10    43 1   
    32    10    44 1   
    33    11    45 1   
    34    11    46 1   
    35    12    19 1   
    36    12    47 1   
    37    12    48 1   
    38    13    19 1   
    39    13    49 1   
    40    13    50 1   
    41    13    70 1   
    42    14    15 1   
    43    14    51 1   
    44    14    52 1   
    45    15    16 1   
    46    15    27 1   
    47    15    53 1   
    48    16    17 1   
    49    16    54 1   
    50    16    55 1   
    51    17    18 1   
    52    17    56 1   
    53    17    57 1   
    54    18    20 1   
    55    18    21 1   
    56    19    26 2   
    57    20    58 1   
    58    20    59 1   
    59    20    60 1   
    60    21    22 1   
    61    21    61 1   
    62    22    23 1   
    63    22    62 1   
    64    22    63 1   
    65    23    24 1   
    66    23    28 1   
    67    23    64 1   
    68    24    25 1   
    69    25    65 1   
    70    25    66 1   
    71    25    67 1   
    72    27    68 1   
    73    28    69 1   
@<TRIPOS>SUBSTRUCTURE
     1 XLK         1 TEMP              0 ****  ****    0 ROOT
