@<TRIPOS>MOLECULE
XLK
   70    73     1     0     0
SMALL
abcg2


@<TRIPOS>ATOM
      1 C4         -66.0820    -7.9030   -20.6810 c3         1 XLK      -0.068400
      2 C14        -74.4670    -7.0170   -17.1690 c6         1 XLK      -0.045700
      3 C5         -66.8620    -7.0780   -19.6420 c3         1 XLK      -0.045700
      4 C6         -66.7720    -5.5860   -19.9690 c3         1 XLK      -0.087100
      5 C11        -71.5860    -7.6520   -17.6040 c6         1 XLK      -0.042700
      6 C7         -68.3090    -7.5960   -19.5590 c5         1 XLK      -0.053700
      7 C8         -68.3820    -9.1020   -19.1640 c5         1 XLK      -0.077400
      8 C9         -69.6980    -9.3040   -18.3770 c5         1 XLK      -0.069400
      9 C10        -70.4340    -7.9760   -18.5470 c5         1 XLK      -0.066700
     10 C12        -72.6560    -8.7460   -17.6200 c6         1 XLK      -0.070400
     11 C13        -73.8720    -8.3740   -16.7740 c6         1 XLK      -0.068400
     12 C3         -64.5670    -7.6270   -20.6840 c3         1 XLK      -0.182400
     13 C1         -63.1950    -9.7420   -21.0270 c3         1 XLK       0.078600
     14 C15        -75.1800    -7.1060   -18.5290 c6         1 XLK      -0.108400
     15 C16        -75.7910    -5.7810   -18.9600 c6         1 XLK       0.169300
     16 C17        -74.7400    -4.6880   -18.9810 c6         1 XLK      -0.072400
     17 C18        -74.0710    -4.5800   -17.6130 c6         1 XLK      -0.070400
     18 C19        -73.4020    -5.8840   -17.1230 c6         1 XLK      -0.034000
     19 C2         -63.8780    -8.5490   -21.6550 c          1 XLK       0.536100
     20 C20        -72.9730    -5.6410   -15.6660 c3         1 XLK      -0.085100
     21 C21        -72.1880    -6.2870   -18.0100 c6         1 XLK      -0.043700
     22 C22        -71.1030    -5.2060   -18.0930 c6         1 XLK      -0.105400
     23 C23        -69.9130    -5.5760   -18.9850 c6         1 XLK       0.180300
     24 C24        -69.3010    -6.9220   -18.5650 c5         1 XLK      -0.030000
     25 C25        -68.6350    -6.7550   -17.1890 c3         1 XLK      -0.084100
     26 O1         -63.8840    -8.3740   -22.8550 o          1 XLK      -0.486100
     27 O2         -76.3700    -5.8680   -20.2730 oh         1 XLK      -0.667000
     28 O3         -70.3110    -5.6540   -20.3650 oh         1 XLK      -0.668000
     29 H1         -66.4830    -7.7000   -21.6780 hc         1 XLK       0.050200
     30 H2         -66.2330    -8.9670   -20.4900 hc         1 XLK       0.050200
     31 H3         -75.2310    -6.7550   -16.4270 hc         1 XLK       0.042700
     32 H4         -66.3850    -7.2470   -18.6690 hc         1 XLK       0.039700
     33 H5         -67.2040    -4.9740   -19.1800 hc         1 XLK       0.035700
     34 H6         -65.7350    -5.2680   -20.0880 hc         1 XLK       0.035700
     35 H7         -67.3010    -5.3620   -20.8980 hc         1 XLK       0.035700
     36 H8         -71.1980    -7.5830   -16.5830 hc         1 XLK       0.046700
     37 H9         -68.7500    -7.4840   -20.5530 hc         1 XLK       0.070700
     38 H10        -68.3480    -9.7370   -20.0490 hc         1 XLK       0.038200
     39 H11        -67.5170    -9.3720   -18.5530 hc         1 XLK       0.038200
     40 H12        -70.2760   -10.1480   -18.7520 hc         1 XLK       0.041200
     41 H13        -69.4960    -9.4980   -17.3210 hc         1 XLK       0.041200
     42 H14        -70.8530    -7.9710   -19.5600 hc         1 XLK       0.063700
     43 H15        -72.9610    -8.9270   -18.6570 hc         1 XLK       0.040700
     44 H16        -72.2300    -9.6840   -17.2580 hc         1 XLK       0.040700
     45 H17        -74.6420    -9.1460   -16.8610 hc         1 XLK       0.039700
     46 H18        -73.5790    -8.3490   -15.7210 hc         1 XLK       0.039700
     47 H19        -64.1670    -7.7720   -19.6770 hc         1 XLK       0.063700
     48 H20        -64.3570    -6.6040   -20.9950 hc         1 XLK       0.063700
     49 H21        -62.3740    -9.3940   -20.3930 h1         1 XLK       0.062200
     50 H22        -63.9090   -10.2900   -20.4050 h1         1 XLK       0.062200
     51 H24        -75.9640    -7.8680   -18.4650 hc         1 XLK       0.047700
     52 H25        -74.4900    -7.4270   -19.3130 hc         1 XLK       0.047700
     53 H26        -76.5750    -5.4990   -18.2440 h1         1 XLK       0.027700
     54 H27        -74.0050    -4.9190   -19.7570 hc         1 XLK       0.053200
     55 H28        -75.2040    -3.7350   -19.2490 hc         1 XLK       0.053200
     56 H29        -73.3490    -3.7640   -17.6130 hc         1 XLK       0.040200
     57 H30        -74.8340    -4.3070   -16.8750 hc         1 XLK       0.040200
     58 H31        -73.8560    -5.4760   -15.0440 hc         1 XLK       0.033700
     59 H32        -72.4190    -6.4770   -15.2430 hc         1 XLK       0.033700
     60 H33        -72.3440    -4.7530   -15.5870 hc         1 XLK       0.033700
     61 H34        -72.5640    -6.4250   -19.0270 hc         1 XLK       0.056700
     62 H35        -70.7240    -4.9690   -17.0980 hc         1 XLK       0.043200
     63 H36        -71.5260    -4.2770   -18.4830 hc         1 XLK       0.043200
     64 H37        -69.1680    -4.7820   -18.8880 h1         1 XLK       0.033700
     65 H38        -69.3530    -6.5050   -16.4100 hc         1 XLK       0.034700
     66 H39        -68.1250    -7.6680   -16.8820 hc         1 XLK       0.034700
     67 H40        -67.8910    -5.9580   -17.2180 hc         1 XLK       0.034700
     68 H41        -77.0340    -6.5690   -20.2610 ho         1 XLK       0.439000
     69 H42        -70.8380    -4.8700   -20.5630 ho         1 XLK       0.440000
     70 F1         -62.6810   -10.6060   -21.9860 f          1 XLK      -0.246000
@<TRIPOS>BOND
     1     1     3 1   
     2     1    12 1   
     3     1    29 1   
     4     1    30 1   
     5     2    11 1   
     6     2    14 1   
     7     2    18 1   
     8     2    31 1   
     9     3     4 1   
    10     3     6 1   
    11     3    32 1   
    12     4    33 1   
    13     4    34 1   
    14     4    35 1   
    15     5     9 1   
    16     5    10 1   
    17     5    21 1   
    18     5    36 1   
    19     6     7 1   
    20     6    24 1   
    21     6    37 1   
    22     7     8 1   
    23     7    38 1   
    24     7    39 1   
    25     8     9 1   
    26     8    40 1   
    27     8    41 1   
    28     9    24 1   
    29     9    42 1   
    30    10    11 1   
    31    10    43 1   
    32    10    44 1   
    33    11    45 1   
    34    11    46 1   
    35    12    19 1   
    36    12    47 1   
    37    12    48 1   
    38    13    19 1   
    39    13    49 1   
    40    13    50 1   
    41    13    70 1   
    42    14    15 1   
    43    14    51 1   
    44    14    52 1   
    45    15    16 1   
    46    15    27 1   
    47    15    53 1   
    48    16    17 1   
    49    16    54 1   
    50    16    55 1   
    51    17    18 1   
    52    17    56 1   
    53    17    57 1   
    54    18    20 1   
    55    18    21 1   
    56    19    26 2   
    57    20    58 1   
    58    20    59 1   
    59    20    60 1   
    60    21    22 1   
    61    21    61 1   
    62    22    23 1   
    63    22    62 1   
    64    22    63 1   
    65    23    24 1   
    66    23    28 1   
    67    23    64 1   
    68    24    25 1   
    69    25    65 1   
    70    25    66 1   
    71    25    67 1   
    72    27    68 1   
    73    28    69 1   
@<TRIPOS>SUBSTRUCTURE
     1 XLK         1 TEMP              0 ****  ****    0 ROOT
