@<TRIPOS>MOLECULE
XLM
   44    45     1     0     0
SMALL
No Charge or Current Charge


@<TRIPOS>ATOM
      1 C1           0.2740     0.3990    -1.6240 c6         1 XLM       0.352300
      2 C2          -0.8220    -0.1430    -2.6050 c6         1 XLM       0.150300
      3 C3          -0.1220    -0.6030    -3.9300 c6         1 XLM       0.181300
      4 C4           0.7800     0.5340    -4.5030 c6         1 XLM       0.089300
      5 C5           1.7760     1.0130    -3.4080 c6         1 XLM       0.134600
      6 O2          -1.6100    -1.2120    -2.0100 oh         1 XLM      -0.711000
      7 O3          -1.0690    -0.9920    -4.9410 oh         1 XLM      -0.639000
      8 O4           1.4710     0.0740    -5.6860 oh         1 XLM      -0.722000
      9 O5           1.0480     1.4430    -2.2380 os         1 XLM      -0.454000
     10 C8           0.1390    -1.5730     2.4330 c6         1 XLM       0.353300
     11 C9          -0.2690    -1.0980     0.9990 c6         1 XLM       0.115300
     12 C10          0.1270     0.4040     0.8200 c6         1 XLM       0.188300
     13 C11         -0.4750     1.2710     1.9700 c6         1 XLM       0.148300
     14 C12         -0.0930     0.6760     3.3580 c6         1 XLM       0.139300
     15 C6          -0.7790     1.4340     4.5410 c3         1 XLM       0.168600
     16 O7          -1.6850    -1.2740     0.7310 oh         1 XLM      -0.704000
     17 O8          -0.3430     0.9360    -0.4430 os         1 XLM      -0.433000
     18 O9          -0.0630     2.6480     1.8330 oh         1 XLM      -0.704000
     19 O10         -0.4860    -0.7260     3.4220 os         1 XLM      -0.452000
     20 O6          -0.4800     0.8670     5.8330 oh         1 XLM      -0.708000
     21 H1           0.9490    -0.4270    -1.3550 h2         1 XLM       0.032700
     22 H2          -1.4800     0.7040    -2.8490 h1         1 XLM       0.065700
     23 H3           0.5270    -1.4580    -3.6870 h1         1 XLM       0.048700
     24 H4           0.1330     1.3870    -4.7590 h1         1 XLM       0.057700
     25 H5C1         2.3700     1.8590    -3.7830 h1         1 XLM       0.056200
     26 H5C2         2.4680     0.2030    -3.1320 h1         1 XLM       0.056200
     27 HA          -1.6390    -1.0590    -1.0220 ho         1 XLM       0.526000
     28 HB          -0.5490    -0.9770    -5.7770 ho         1 XLM       0.455000
     29 HC           1.9280     0.8530    -6.0870 ho         1 XLM       0.512000
     30 H8          -0.2110    -2.6080     2.5690 h2         1 XLM       0.067700
     31 H9           0.3130    -1.6990     0.2850 h1         1 XLM       0.058700
     32 H10          1.2240     0.4920     0.8560 h1         1 XLM       0.079700
     33 H11         -1.5710     1.2170     1.8830 h1         1 XLM       0.066700
     34 H5           0.9950     0.7530     3.4980 h1         1 XLM       0.070700
     35 H6'1        -0.4540     2.4830     4.5140 h1         1 XLM       0.026700
     36 H6'2        -1.8640     1.4260     4.3700 h1         1 XLM       0.026700
     37 H7'1         3.1740    -2.0510     3.8410 h1         1 XLM       0.038700
     38 H7'2         1.6940    -1.5730     4.7000 h1         1 XLM       0.038700
     39 H7'3         1.7920    -3.1660     3.9080 h1         1 XLM       0.038700
     40 HD          -2.1540    -1.2150     1.5990 ho         1 XLM       0.508000
     41 HE          -0.1690     2.8640     0.8750 ho         1 XLM       0.507000
     42 H6          -1.0080     1.3700     6.4960 ho         1 XLM       0.503000
     43 O1           1.5690    -1.5380     2.6040 os         1 XLM      -0.484000
     44 C7           2.0780    -2.1100     3.8220 c3         1 XLM       0.148900
@<TRIPOS>BOND
     1     1     2 1   
     2     1     9 1   
     3     1    17 1   
     4     1    21 1   
     5     2     3 1   
     6     2     6 1   
     7     2    22 1   
     8     3     4 1   
     9     3     7 1   
    10     3    23 1   
    11     4     5 1   
    12     4     8 1   
    13     4    24 1   
    14     5     9 1   
    15     5    25 1   
    16     5    26 1   
    17     6    27 1   
    18     7    28 1   
    19     8    29 1   
    20    10    11 1   
    21    10    19 1   
    22    10    30 1   
    23    10    43 1   
    24    11    12 1   
    25    11    16 1   
    26    11    31 1   
    27    12    13 1   
    28    12    17 1   
    29    12    32 1   
    30    13    14 1   
    31    13    18 1   
    32    13    33 1   
    33    14    15 1   
    34    14    19 1   
    35    14    34 1   
    36    15    20 1   
    37    15    35 1   
    38    15    36 1   
    39    16    40 1   
    40    18    41 1   
    41    20    42 1   
    42    37    44 1   
    43    38    44 1   
    44    39    44 1   
    45    43    44 1   
@<TRIPOS>SUBSTRUCTURE
     1 XLM         1 TEMP              0 ****  ****    0 ROOT
