@<TRIPOS>MOLECULE
XLM
   44    45     1     0     0
SMALL
bcc


@<TRIPOS>ATOM
      1 C1           0.2680     0.2420    -1.5950 c6         1 XLM       0.305900
      2 C2          -0.7480    -0.2210    -2.6440 c6         1 XLM       0.127100
      3 C3          -0.0310    -0.5250    -3.9480 c6         1 XLM       0.158100
      4 C4           0.8080     0.6820    -4.3540 c6         1 XLM       0.066100
      5 C5           1.7320     1.0770    -3.2050 c6         1 XLM       0.111400
      6 O2          -1.4100    -1.3790    -2.2100 oh         1 XLM      -0.588800
      7 O3          -0.9870    -0.8570    -4.9220 oh         1 XLM      -0.576800
      8 O4           1.5450     0.3210    -5.5000 oh         1 XLM      -0.599800
      9 O5           0.9880     1.3600    -2.0390 os         1 XLM      -0.407600
     10 C8           0.0420    -1.5450     2.5590 c6         1 XLM       0.306900
     11 C9          -0.3380    -1.2080     1.1160 c6         1 XLM       0.092100
     12 C10          0.0810     0.2230     0.7850 c6         1 XLM       0.165100
     13 C11         -0.4430     1.2050     1.8230 c6         1 XLM       0.125100
     14 C12         -0.0450     0.7320     3.2280 c6         1 XLM       0.116100
     15 C6          -0.6790     1.5850     4.3040 c3         1 XLM       0.145400
     16 O7          -1.7320    -1.3000     0.9380 oh         1 XLM      -0.581800
     17 O8          -0.4360     0.6160    -0.4680 os         1 XLM      -0.386600
     18 O9           0.1200     2.4660     1.5510 oh         1 XLM      -0.581800
     19 O10         -0.4700    -0.6030     3.4510 os         1 XLM      -0.405600
     20 O6          -0.1960     1.1710     5.5590 oh         1 XLM      -0.585800
     21 H1           0.9670    -0.5880    -1.3860 h2         1 XLM       0.032700
     22 H2          -1.4530     0.6080    -2.8160 h1         1 XLM       0.065700
     23 H3           0.6580    -1.3690    -3.7700 h1         1 XLM       0.048700
     24 H4           0.1310     1.5210    -4.5670 h1         1 XLM       0.057700
     25 H5C1         2.2920     1.9800    -3.4540 h1         1 XLM       0.056200
     26 H5C2         2.4590     0.2710    -3.0240 h1         1 XLM       0.056200
     27 HA          -1.8090    -1.1940    -1.3490 ho         1 XLM       0.427000
     28 HB          -0.5220    -0.9970    -5.7530 ho         1 XLM       0.416000
     29 HC           1.8180     1.1210    -5.9560 ho         1 XLM       0.413000
     30 H8          -0.4240    -2.4970     2.8540 h2         1 XLM       0.067700
     31 H9           0.1880    -1.9090     0.4530 h1         1 XLM       0.058700
     32 H10          1.1780     0.2720     0.7850 h1         1 XLM       0.079700
     33 H11         -1.5380     1.2380     1.7590 h1         1 XLM       0.066700
     34 H5           1.0480     0.8120     3.3190 h1         1 XLM       0.070700
     35 H6'1        -0.4300     2.6340     4.1070 h1         1 XLM       0.026700
     36 H6'2        -1.7730     1.4950     4.2350 h1         1 XLM       0.026700
     37 H7'1         2.9910    -2.2990     3.7200 h1         1 XLM       0.038700
     38 H7'2         1.8320    -1.3220     4.6350 h1         1 XLM       0.038700
     39 H7'3         1.4310    -2.9940     4.1960 h1         1 XLM       0.038700
     40 HD          -1.9970    -2.2200     1.0400 ho         1 XLM       0.409000
     41 HE          -0.5170     3.1490     1.7740 ho         1 XLM       0.408000
     42 H6          -0.5280     1.7840     6.2210 ho         1 XLM       0.404000
     43 O1           1.4280    -1.6470     2.6100 os         1 XLM      -0.437600
     44 C7           1.9330    -2.0820     3.8570 c3         1 XLM       0.125700
@<TRIPOS>BOND
     1     1     2 1   
     2     1     9 1   
     3     1    17 1   
     4     1    21 1   
     5     2     3 1   
     6     2     6 1   
     7     2    22 1   
     8     3     4 1   
     9     3     7 1   
    10     3    23 1   
    11     4     5 1   
    12     4     8 1   
    13     4    24 1   
    14     5     9 1   
    15     5    25 1   
    16     5    26 1   
    17     6    27 1   
    18     7    28 1   
    19     8    29 1   
    20    10    11 1   
    21    10    19 1   
    22    10    30 1   
    23    10    43 1   
    24    11    12 1   
    25    11    16 1   
    26    11    31 1   
    27    12    13 1   
    28    12    17 1   
    29    12    32 1   
    30    13    14 1   
    31    13    18 1   
    32    13    33 1   
    33    14    15 1   
    34    14    19 1   
    35    14    34 1   
    36    15    20 1   
    37    15    35 1   
    38    15    36 1   
    39    16    40 1   
    40    18    41 1   
    41    20    42 1   
    42    37    44 1   
    43    38    44 1   
    44    39    44 1   
    45    43    44 1   
@<TRIPOS>SUBSTRUCTURE
     1 XLM         1 TEMP              0 ****  ****    0 ROOT
