@<TRIPOS>MOLECULE
XLO
   29    30     1     0     0
SMALL
No Charge or Current Charge


@<TRIPOS>ATOM
      1 C01          4.3390     1.2890     0.0100 ca         1 XLO      -0.066000
      2 C02          3.2520     2.1620     0.1800 ca         1 XLO      -0.155000
      3 C03          1.9400     1.6650     0.2000 ca         1 XLO      -0.108000
      4 C04          1.7000     0.2850     0.0490 ca         1 XLO      -0.120800
      5 C05          2.7970    -0.5870    -0.1170 ca         1 XLO      -0.060000
      6 C06          4.1260    -0.1000    -0.1400 ca         1 XLO      -0.144600
      7 C07          5.2990    -1.0490    -0.3210 c          1 XLO       0.713600
      8 C08          0.3170    -0.2820     0.0680 ce         1 XLO      -0.079200
      9 C09         -0.8790     0.3750     0.0130 cf         1 XLO      -0.229200
     10 C10         -2.2610    -0.1720     0.0350 ca         1 XLO      -0.035800
     11 C11         -2.4840    -1.5360     0.3350 ca         1 XLO      -0.069000
     12 C12         -3.7860    -2.0660     0.3630 ca         1 XLO      -0.201000
     13 C13         -4.8860    -1.2420     0.0930 ca         1 XLO       0.125100
     14 C14         -4.6870     0.1100    -0.2040 ca         1 XLO      -0.145000
     15 C15         -3.3900     0.6490    -0.2330 ca         1 XLO       0.150000
     16 O01          6.4310    -0.5850    -0.3380 o          1 XLO      -0.719000
     17 O02          5.0720    -2.2450    -0.4450 o          1 XLO      -0.719000
     18 O03         -6.1480    -1.7540     0.1190 oh         1 XLO      -0.538100
     19 Cl1         -3.2320     2.3640    -0.6280 cl         1 XLO      -0.211000
     20 H1           5.3470     1.6980    -0.0020 ha         1 XLO       0.129000
     21 H2           3.4280     3.2280     0.2980 ha         1 XLO       0.088000
     22 H3           1.1200     2.3640     0.3420 ha         1 XLO       0.088000
     23 H4           2.6140    -1.6530    -0.2320 ha         1 XLO       0.127000
     24 H5           0.3020    -1.3700     0.1160 ha         1 XLO       0.165000
     25 H6          -0.8280     1.4590    -0.0560 ha         1 XLO       0.185000
     26 H7          -1.6540    -2.1990     0.5600 ha         1 XLO       0.124000
     27 H8          -3.9300    -3.1180     0.5980 ha         1 XLO       0.110000
     28 H9          -5.5410     0.7480    -0.4140 ha         1 XLO       0.134000
     29 H11         -6.0910    -2.7080     0.3420 ho         1 XLO       0.461000
@<TRIPOS>BOND
     1     1     2 ar  
     2     1     6 ar  
     3     1    20 1   
     4     2     3 ar  
     5     2    21 1   
     6     3     4 ar  
     7     3    22 1   
     8     4     5 ar  
     9     4     8 1   
    10     5     6 ar  
    11     5    23 1   
    12     6     7 1   
    13     7    16 1   
    14     7    17 1   
    15     8     9 2   
    16     8    24 1   
    17     9    10 1   
    18     9    25 1   
    19    10    11 ar  
    20    10    15 ar  
    21    11    12 ar  
    22    11    26 1   
    23    12    13 ar  
    24    12    27 1   
    25    13    14 ar  
    26    13    18 1   
    27    14    15 ar  
    28    14    28 1   
    29    15    19 1   
    30    18    29 1   
@<TRIPOS>SUBSTRUCTURE
     1 XLO         1 TEMP              0 ****  ****    0 ROOT
