@<TRIPOS>MOLECULE
XLP
   16    17     1     0     0
SMALL
bcc


@<TRIPOS>ATOM
      1 N1         -20.2980    12.3200    25.1370 nc         1 XLP      -0.531100
      2 C4         -21.2010    13.3030    27.0660 ca         1 XLP      -0.044100
      3 C5         -22.2270    13.5970    27.9550 ca         1 XLP      -0.080000
      4 C6         -23.4970    13.1040    27.6940 ca         1 XLP      -0.119600
      5 C7         -24.6510    13.4130    28.6480 c          1 XLP       0.924200
      6 C8         -19.2760    12.9090    25.6450 cd         1 XLP       0.356100
      7 C1         -23.7110    12.3230    26.5460 ca         1 XLP      -0.101000
      8 C2         -22.6930    12.0270    25.6630 ca         1 XLP      -0.112000
      9 C3         -21.4130    12.5230    25.9190 ca         1 XLP       0.053400
     10 O1         -24.3710    14.0900    29.6550 o          1 XLP      -0.818800
     11 O2         -25.7650    12.9600    28.3280 o          1 XLP      -0.818800
     12 S1         -19.5360    13.7780    27.1240 ss         1 XLP      -0.181100
     13 H3         -22.0480    14.2000    28.8340 ha         1 XLP       0.159000
     14 H5         -18.2910    12.8880    25.1990 h5         1 XLP       0.034800
     15 H1         -24.7060    11.9450    26.3560 ha         1 XLP       0.152000
     16 H2         -22.8720    11.4220    24.7840 ha         1 XLP       0.125000
@<TRIPOS>BOND
     1     1     6 2   
     2     1     9 1   
     3     2     3 ar  
     4     2     9 ar  
     5     2    12 1   
     6     3     4 ar  
     7     3    13 1   
     8     4     5 1   
     9     4     7 ar  
    10     5    10 1   
    11     5    11 1   
    12     6    12 1   
    13     6    14 1   
    14     7     8 ar  
    15     7    15 1   
    16     8     9 ar  
    17     8    16 1   
@<TRIPOS>SUBSTRUCTURE
     1 XLP         1 TEMP              0 ****  ****    0 ROOT
