@<TRIPOS>MOLECULE
XLP
   16    17     1     0     0
SMALL
No Charge or Current Charge


@<TRIPOS>ATOM
      1 N1         -20.3050    12.2860    25.0850 nc         1 XLP      -0.531100
      2 C4         -21.1880    13.2890    27.0370 ca         1 XLP      -0.171000
      3 C5         -22.2150    13.5960    27.9430 ca         1 XLP      -0.062000
      4 C6         -23.5210    13.1050    27.7010 ca         1 XLP      -0.119600
      5 C7         -24.6580    13.4160    28.6610 c          1 XLP       0.713600
      6 C8         -19.2590    12.9130    25.6500 cd         1 XLP       0.356100
      7 C1         -23.7420    12.3160    26.5420 ca         1 XLP      -0.083000
      8 C2         -22.6880    12.0260    25.6510 ca         1 XLP      -0.094000
      9 C3         -21.4010    12.5220    25.9090 ca         1 XLP       0.053400
     10 O1         -24.4200    14.1000    29.6470 o          1 XLP      -0.713500
     11 O2         -25.7710    12.9730    28.4140 o          1 XLP      -0.713500
     12 S1         -19.5200    13.8060    27.1720 ss         1 XLP      -0.054200
     13 H3         -22.0000    14.2040    28.8200 ha         1 XLP       0.141000
     14 H5         -18.2610    12.9050    25.2290 h5         1 XLP       0.034800
     15 H1         -24.7340    11.9230    26.3260 ha         1 XLP       0.134000
     16 H2         -22.8730    11.4210    24.7670 ha         1 XLP       0.107000
@<TRIPOS>BOND
     1     1     6 2   
     2     1     9 1   
     3     2     3 ar  
     4     2     9 ar  
     5     2    12 1   
     6     3     4 ar  
     7     3    13 1   
     8     4     5 1   
     9     4     7 ar  
    10     5    10 1   
    11     5    11 1   
    12     6    12 1   
    13     6    14 1   
    14     7     8 ar  
    15     7    15 1   
    16     8     9 ar  
    17     8    16 1   
@<TRIPOS>SUBSTRUCTURE
     1 XLP         1 TEMP              0 ****  ****    0 ROOT
