@<TRIPOS>MOLECULE
XLR
   31    30     1     0     0
SMALL
abcg2


@<TRIPOS>ATOM
      1 N            6.1980    -4.0920    -1.3390 n          1 XLR      -0.284300
      2 C            5.9040    -4.5460    -0.1200 c          1 XLR       0.585900
      3 O           15.0170    -2.5900    -2.5980 o          1 XLR      -0.908500
      4 C02         11.3690    -4.3960    -2.9110 c3         1 XLR      -0.147400
      5 C03         10.4010    -4.6760    -4.0580 c3         1 XLR       0.150300
      6 C04          9.0380    -5.1990    -3.5990 c3         1 XLR       0.178300
      7 C05          8.3000    -4.2690    -2.6420 c3         1 XLR       0.158300
      8 C06          6.8730    -4.7750    -2.4160 c3         1 XLR       0.085000
      9 F           12.2650    -2.4660    -3.9420 f          1 XLR      -0.179500
     10 F01         13.2790    -4.3840    -4.3330 f          1 XLR      -0.179500
     11 O01         14.1830    -4.6900    -1.3740 o          1 XLR      -0.908500
     12 O02          5.4300    -3.8180     0.7570 o          1 XLR      -0.647100
     13 O03          5.9770    -2.7290    -1.5660 oh         1 XLR      -0.465100
     14 O04          8.3150    -2.9640    -3.2120 oh         1 XLR      -0.704000
     15 O05          9.1710    -6.4540    -2.9360 oh         1 XLR      -0.696000
     16 O06         10.8940    -5.7050    -4.9350 oh         1 XLR      -0.803000
     17 O07         13.0520    -2.4240    -0.9570 o          1 XLR      -0.908500
     18 P           13.8600    -3.2990    -1.9080 p5         1 XLR       1.280500
     19 H1           6.1170    -5.6130     0.0070 h5         1 XLR       0.039200
     20 H2          10.8800    -3.7780    -2.1590 hc         1 XLR       0.078200
     21 H3          11.6580    -5.3290    -2.4270 hc         1 XLR       0.078200
     22 H4          10.2350    -3.7600    -4.6290 h1         1 XLR       0.061700
     23 H5           8.4280    -5.3220    -4.5040 h1         1 XLR       0.015700
     24 H6           8.8190    -4.2720    -1.6770 h1         1 XLR       0.078700
     25 H7           6.2900    -4.6590    -3.3330 h1         1 XLR       0.065700
     26 H8           6.8950    -5.8300    -2.1440 h1         1 XLR       0.065700
     27 H10          5.6730    -2.4160    -0.6880 ho         1 XLR       0.472000
     28 H11          7.7610    -2.3950    -2.6590 ho         1 XLR       0.511000
     29 H12          9.7700    -6.9870    -3.4780 ho         1 XLR       0.471000
     30 H13         11.8340    -5.5410    -5.0820 ho         1 XLR       0.547000
     31 C01         12.6310    -3.6570    -3.3030 c3         1 XLR      -0.092000
@<TRIPOS>BOND
     1     1     2 1   
     2     1     8 1   
     3     1    13 1   
     4     2    12 2   
     5     2    19 1   
     6     3    18 1   
     7     4     5 1   
     8     4    20 1   
     9     4    21 1   
    10     4    31 1   
    11     5     6 1   
    12     5    16 1   
    13     5    22 1   
    14     6     7 1   
    15     6    15 1   
    16     6    23 1   
    17     7     8 1   
    18     7    14 1   
    19     7    24 1   
    20     8    25 1   
    21     8    26 1   
    22     9    31 1   
    23    10    31 1   
    24    11    18 1   
    25    13    27 1   
    26    14    28 1   
    27    15    29 1   
    28    16    30 1   
    29    17    18 1   
    30    18    31 1   
@<TRIPOS>SUBSTRUCTURE
     1 XLR         1 TEMP              0 ****  ****    0 ROOT
