@<TRIPOS>MOLECULE
XLR
   31    30     1     0     0
SMALL
No Charge or Current Charge


@<TRIPOS>ATOM
      1 N            6.1300    -4.0710    -1.1270 n          1 XLR      -0.284300
      2 C            4.8360    -4.4740    -0.7070 c          1 XLR       0.585900
      3 O           15.1680    -2.4150    -2.9300 o          1 XLR      -0.908500
      4 C02         11.4500    -4.2530    -3.0340 c3         1 XLR      -0.147400
      5 C03         10.3980    -4.7360    -4.0740 c3         1 XLR       0.150300
      6 C04          9.0690    -5.3040    -3.4690 c3         1 XLR       0.178300
      7 C05          8.3230    -4.3500    -2.4800 c3         1 XLR       0.158300
      8 C06          6.9950    -4.9630    -1.9500 c3         1 XLR       0.085000
      9 F           12.4680    -2.7120    -4.5370 f          1 XLR      -0.179500
     10 F01         13.4430    -4.6440    -4.2980 f          1 XLR      -0.179500
     11 O01         14.2760    -3.9960    -1.3020 o          1 XLR      -0.908500
     12 O02          4.1260    -3.7810     0.0180 o          1 XLR      -0.647100
     13 O03          6.6820    -2.8020    -0.6860 oh         1 XLR      -0.465100
     14 O04          8.0270    -3.0900    -3.1130 oh         1 XLR      -0.704000
     15 O05          9.3770    -6.5590    -2.8440 oh         1 XLR      -0.696000
     16 O06         11.0120    -5.7640    -4.8710 oh         1 XLR      -0.803000
     17 O07         13.2200    -1.8180    -1.5910 o          1 XLR      -0.908500
     18 P           13.9200    -2.9360    -2.2930 p5         1 XLR       1.280500
     19 H1           4.5450    -5.4690    -1.0950 h5         1 XLR       0.039200
     20 H2          10.9940    -3.4700    -2.4180 hc         1 XLR       0.078200
     21 H3          11.6960    -5.0740    -2.3490 hc         1 XLR       0.078200
     22 H4          10.1310    -3.8790    -4.7100 h1         1 XLR       0.061700
     23 H5           8.3890    -5.4920    -4.3110 h1         1 XLR       0.015700
     24 H6           8.9730    -4.1840    -1.6100 h1         1 XLR       0.078700
     25 H7           6.4060    -5.3090    -2.8100 h1         1 XLR       0.065700
     26 H8           7.2360    -5.8510    -1.3500 h1         1 XLR       0.065700
     27 H10          6.9720    -2.9540     0.2450 ho         1 XLR       0.472000
     28 H11          7.4130    -2.6430    -2.4760 ho         1 XLR       0.511000
     29 H12         10.1110    -6.8990    -3.4110 ho         1 XLR       0.471000
     30 H13         11.9550    -5.4740    -4.9580 ho         1 XLR       0.547000
     31 C01         12.7740    -3.6710    -3.6240 c3         1 XLR      -0.092000
@<TRIPOS>BOND
     1     1     2 1   
     2     1     8 1   
     3     1    13 1   
     4     2    12 2   
     5     2    19 1   
     6     3    18 1   
     7     4     5 1   
     8     4    20 1   
     9     4    21 1   
    10     4    31 1   
    11     5     6 1   
    12     5    16 1   
    13     5    22 1   
    14     6     7 1   
    15     6    15 1   
    16     6    23 1   
    17     7     8 1   
    18     7    14 1   
    19     7    24 1   
    20     8    25 1   
    21     8    26 1   
    22     9    31 1   
    23    10    31 1   
    24    11    18 1   
    25    13    27 1   
    26    14    28 1   
    27    15    29 1   
    28    16    30 1   
    29    17    18 1   
    30    18    31 1   
@<TRIPOS>SUBSTRUCTURE
     1 XLR         1 TEMP              0 ****  ****    0 ROOT
