@<TRIPOS>MOLECULE
XLS
   20    19     1     0     0
SMALL
bcc


@<TRIPOS>ATOM
      1 C1          10.2700    34.0660    47.0760 c          1 XLS       0.576900
      2 C2          11.6460    34.2530    46.4920 c3         1 XLS       0.045100
      3 C3          12.2540    32.8650    46.2620 c3         1 XLS       0.122100
      4 C4          13.7320    32.9460    45.8720 c3         1 XLS       0.113100
      5 C5          14.3590    31.5800    45.6250 c3         1 XLS       0.102400
      6 O1           9.2650    34.5620    46.6390 o          1 XLS      -0.473100
      7 O2          11.5620    35.0560    45.3580 oh         1 XLS      -0.562800
      8 O3          11.4570    32.2090    45.3040 oh         1 XLS      -0.568800
      9 O4          13.8550    33.7370    44.7010 oh         1 XLS      -0.593800
     10 O5          14.2030    30.8000    46.7860 oh         1 XLS      -0.604800
     11 H1          10.2570    33.4330    47.9820 h4         1 XLS      -0.021800
     12 H2          12.2420    34.7180    47.3000 h1         1 XLS       0.038700
     13 H3          12.2220    32.3470    47.2300 h1         1 XLS       0.053700
     14 H4          14.2510    33.4210    46.7150 h1         1 XLS       0.046700
     15 H51         13.8880    31.1170    44.7480 h1         1 XLS       0.033200
     16 H52         15.4190    31.7260    45.3730 h1         1 XLS       0.033200
     17 HO2         12.3950    34.9460    44.8770 ho         1 XLS       0.431000
     18 HO3         11.5930    31.2600    45.3830 ho         1 XLS       0.405000
     19 HO4         14.7670    34.0320    44.6170 ho         1 XLS       0.410000
     20 HO5         14.5350    29.9160    46.6060 ho         1 XLS       0.415000
@<TRIPOS>BOND
     1     1     2 1   
     2     1     6 2   
     3     1    11 1   
     4     2     3 1   
     5     2     7 1   
     6     2    12 1   
     7     3     4 1   
     8     3     8 1   
     9     3    13 1   
    10     4     5 1   
    11     4     9 1   
    12     4    14 1   
    13     5    10 1   
    14     5    15 1   
    15     5    16 1   
    16     7    17 1   
    17     8    18 1   
    18     9    19 1   
    19    10    20 1   
@<TRIPOS>SUBSTRUCTURE
     1 XLS         1 TEMP              0 ****  ****    0 ROOT
