@<TRIPOS>MOLECULE
XLS
   20    19     1     0     0
SMALL
No Charge or Current Charge


@<TRIPOS>ATOM
      1 C1          10.1310    34.1410    47.1420 c          1 XLS       0.576900
      2 C2          11.5850    34.2830    46.6010 c3         1 XLS       0.068300
      3 C3          12.1960    32.8830    46.2830 c3         1 XLS       0.145300
      4 C4          13.7060    32.9690    45.8470 c3         1 XLS       0.136300
      5 C5          14.3810    31.5790    45.6350 c3         1 XLS       0.125600
      6 O1           9.1650    34.7880    46.7410 o          1 XLS      -0.473100
      7 O2          11.7000    35.1380    45.4310 oh         1 XLS      -0.685000
      8 O3          11.4010    32.2250    45.2730 oh         1 XLS      -0.691000
      9 O4          13.8420    33.7630    44.6420 oh         1 XLS      -0.716000
     10 O5          14.2750    30.7630    46.8150 oh         1 XLS      -0.727000
     11 H1          10.0180    33.4320    47.9920 h4         1 XLS      -0.021800
     12 H2          12.1700    34.7120    47.4240 h1         1 XLS       0.038700
     13 H3          12.1570    32.2990    47.2140 h1         1 XLS       0.053700
     14 H4          14.2500    33.4650    46.6640 h1         1 XLS       0.046700
     15 H51         13.9160    31.0720    44.7790 h1         1 XLS       0.033200
     16 H52         15.4400    31.7360    45.3860 h1         1 XLS       0.033200
     17 HO2         12.4530    34.7220    44.9170 ho         1 XLS       0.530000
     18 HO3         11.7950    31.3350    45.1290 ho         1 XLS       0.504000
     19 HO4         14.7950    33.7460    44.3820 ho         1 XLS       0.509000
     20 HO5         14.7940    29.9390    46.6490 ho         1 XLS       0.514000
@<TRIPOS>BOND
     1     1     2 1   
     2     1     6 2   
     3     1    11 1   
     4     2     3 1   
     5     2     7 1   
     6     2    12 1   
     7     3     4 1   
     8     3     8 1   
     9     3    13 1   
    10     4     5 1   
    11     4     9 1   
    12     4    14 1   
    13     5    10 1   
    14     5    15 1   
    15     5    16 1   
    16     7    17 1   
    17     8    18 1   
    18     9    19 1   
    19    10    20 1   
@<TRIPOS>SUBSTRUCTURE
     1 XLS         1 TEMP              0 ****  ****    0 ROOT
