@<TRIPOS>MOLECULE
XLV
   16    16     1     0     0
SMALL
No Charge or Current Charge


@<TRIPOS>ATOM
      1 N1         -19.2650    12.2250    25.6730 nc         1 XLV      -0.381300
      2 C4         -19.0170    13.3490    27.8410 c3         1 XLV      -0.135400
      3 C5         -21.4760    11.6900    25.7120 cc         1 XLV       0.416900
      4 C1         -22.1440    12.6450    28.0160 c3         1 XLV       0.006200
      5 C2         -21.2050    12.3230    26.8780 cd         1 XLV      -0.303300
      6 C3         -19.8300    12.6330    26.7980 cd         1 XLV       0.314300
      7 O1         -20.3420    11.6010    24.9470 os         1 XLV      -0.103700
      8 N2         -22.6350    11.1710    25.2340 nv         1 XLV      -1.024900
      9 H6         -18.0180    13.6070    27.4710 hc         1 XLV       0.055033
     10 H4         -19.5100    14.2790    28.1470 hc         1 XLV       0.055033
     11 H5         -18.8950    12.7240    28.7330 hc         1 XLV       0.055033
     12 H2         -22.5200    13.6720    27.9340 hc         1 XLV       0.034033
     13 H1         -23.0100    11.9710    28.0270 hc         1 XLV       0.034033
     14 H3         -21.6410    12.5490    28.9860 hc         1 XLV       0.034033
     15 H7         -22.5900    10.5500    24.4290 hn         1 XLV       0.472500
     16 H8         -23.4130    11.0410    25.8750 hn         1 XLV       0.472500
@<TRIPOS>BOND
     1     1     6 2   
     2     1     7 1   
     3     2     6 1   
     4     2     9 1   
     5     2    10 1   
     6     2    11 1   
     7     3     5 2   
     8     3     7 1   
     9     3     8 1   
    10     4     5 1   
    11     4    12 1   
    12     4    13 1   
    13     4    14 1   
    14     5     6 1   
    15     8    15 1   
    16     8    16 1   
@<TRIPOS>SUBSTRUCTURE
     1 XLV         1 TEMP              0 ****  ****    0 ROOT
