@<TRIPOS>MOLECULE
XLW
   35    37     1     0     0
SMALL
No Charge or Current Charge


@<TRIPOS>ATOM
      1 N1          -9.6100   -55.9930   -26.3160 nu         1 XLW      -0.877100
      2 N3         -11.4950   -53.8190   -27.6010 nb         1 XLW      -0.170000
      3 C4         -10.2980   -56.1640   -23.9680 ca         1 XLW      -0.171300
      4 C5         -10.4350   -54.9560   -23.2530 ca         1 XLW      -0.038000
      5 C6         -10.0180   -54.8760   -21.9140 ca         1 XLW      -0.185000
      6 C7         -10.7500   -56.2280   -25.4220 c3         1 XLW       0.276100
      7 C8          -8.8750   -54.8450   -26.3640 ca         1 XLW       0.640900
      8 C10         -7.0610   -52.8150   -26.2670 ca         1 XLW      -0.225000
      9 C13        -10.8120   -53.1800   -26.6280 cp         1 XLW       0.198500
     10 C15        -12.7970   -51.8880   -26.1290 ca         1 XLW       0.097900
     11 C1          -9.4660   -56.0000   -21.2870 ca         1 XLW       0.212000
     12 C2          -9.3270   -57.2070   -21.9860 ca         1 XLW      -0.245000
     13 C3          -9.7410   -57.2900   -23.3240 ca         1 XLW       0.174100
     14 F           -9.0660   -55.9220   -20.0000 f          1 XLW      -0.180000
     15 O           -9.5970   -58.4710   -23.9910 oh         1 XLW      -0.536100
     16 N2          -7.5860   -55.1730   -26.2810 nb         1 XLW      -0.756000
     17 C9          -6.6900   -54.1660   -26.2350 ca         1 XLW       0.398900
     18 C11         -8.4170   -52.4800   -26.3740 ca         1 XLW      -0.024000
     19 C12         -9.3740   -53.5180   -26.4410 cp         1 XLW      -0.261500
     20 C14        -12.7880   -53.4780   -27.7810 ca         1 XLW       0.110900
     21 N4         -13.4760   -52.5440   -27.0900 nb         1 XLW      -0.177000
     22 C16        -11.4460   -52.1710   -25.8660 ca         1 XLW      -0.217000
     23 H1          -8.9520   -56.7640   -26.3350 hn         1 XLW       0.480000
     24 H2         -10.8620   -54.0780   -23.7340 ha         1 XLW       0.121000
     25 H3         -10.1220   -53.9450   -21.3630 ha         1 XLW       0.138000
     26 H4         -11.5500   -55.4960   -25.5870 h1         1 XLW       0.066700
     27 H5         -11.1870   -57.2160   -25.6260 h1         1 XLW       0.066700
     28 H6          -6.2990   -52.0420   -26.2230 ha         1 XLW       0.127000
     29 H7         -13.3390   -51.1280   -25.5690 h4         1 XLW       0.025100
     30 H8          -8.8970   -58.0670   -21.4810 ha         1 XLW       0.135000
     31 H9          -9.1940   -59.1230   -23.3790 ho         1 XLW       0.473000
     32 H10         -5.6410   -54.4520   -26.1630 h4         1 XLW       0.018100
     33 H11         -8.7210   -51.4350   -26.4270 ha         1 XLW       0.116000
     34 H12        -13.3300   -54.0070   -28.5640 h5         1 XLW       0.051100
     35 H13        -10.9080   -51.6330   -25.0900 ha         1 XLW       0.136000
@<TRIPOS>BOND
     1     1     6 1   
     2     1     7 1   
     3     1    23 1   
     4     2     9 ar  
     5     2    20 ar  
     6     3     4 ar  
     7     3     6 1   
     8     3    13 ar  
     9     4     5 ar  
    10     4    24 1   
    11     5    11 ar  
    12     5    25 1   
    13     6    26 1   
    14     6    27 1   
    15     7    16 ar  
    16     7    19 ar  
    17     8    17 ar  
    18     8    18 ar  
    19     8    28 1   
    20     9    19 1   
    21     9    22 ar  
    22    10    21 ar  
    23    10    22 ar  
    24    10    29 1   
    25    11    12 ar  
    26    11    14 1   
    27    12    13 ar  
    28    12    30 1   
    29    13    15 1   
    30    15    31 1   
    31    16    17 ar  
    32    17    32 1   
    33    18    19 ar  
    34    18    33 1   
    35    20    21 ar  
    36    20    34 1   
    37    22    35 1   
@<TRIPOS>SUBSTRUCTURE
     1 XLW         1 TEMP              0 ****  ****    0 ROOT
