@<TRIPOS>MOLECULE
XLX
   35    34     1     0     0
SMALL
No Charge or Current Charge


@<TRIPOS>ATOM
      1 O13          1.9970    -0.7360     1.3750 o          1 XLX      -0.608100
      2 C12          2.2480     0.1120     0.5310 c          1 XLX       0.598100
      3 C11          3.5730     0.8850     0.5050 c3         1 XLX      -0.160400
      4 N8           1.3480     0.4670    -0.4490 ns         1 XLX      -0.515900
      5 C7           0.0060    -0.1060    -0.6030 c3         1 XLX       0.088000
      6 C6          -0.9820     0.3860     0.4770 c3         1 XLX       0.080000
      7 N1          -2.3300    -0.1610     0.2880 ns         1 XLX      -0.516900
      8 C2          -3.4610     0.3250     0.9030 c          1 XLX       0.593100
      9 O15         -3.4210     1.2610     1.6900 o          1 XLX      -0.633100
     10 C3          -4.7600    -0.4170     0.5610 c3         1 XLX      -0.133400
     11 H1           3.4850     1.7570    -0.1540 hc         1 XLX       0.042200
     12 H2           3.8100     1.2120     1.5240 hc         1 XLX       0.042200
     13 H4           1.6460     1.1850    -1.1000 hn         1 XLX       0.306500
     14 H5          -0.3750     0.1700    -1.5950 h1         1 XLX       0.048200
     15 H6           0.0810    -1.2000    -0.5610 h1         1 XLX       0.048200
     16 H7          -0.6210     0.0930     1.4710 h1         1 XLX       0.051200
     17 H8          -1.0350     1.4820     0.4400 h1         1 XLX       0.051200
     18 H9          -2.4540    -0.9470    -0.3410 hn         1 XLX       0.305500
     19 H10         -4.5250    -1.3710     0.0720 hc         1 XLX       0.058700
     20 H11         -5.3090    -0.6070     1.4910 hc         1 XLX       0.058700
     21 C1          -5.6750     0.4050    -0.3900 c3         1 XLX      -0.203400
     22 C4          -6.9600    -0.3760    -0.7130 c          1 XLX       0.717000
     23 O2          -7.9170    -0.2440     0.0340 o          1 XLX      -0.743000
     24 O1          -6.9460    -1.1380    -1.6670 o          1 XLX      -0.743000
     25 C9           4.7350     0.0010    -0.0070 c3         1 XLX      -0.047400
     26 C10          6.0900     0.7490    -0.0580 c3         1 XLX      -0.207400
     27 C13          7.1950    -0.1910    -0.5740 c          1 XLX       0.718000
     28 O4           7.3820    -0.2530    -1.7800 o          1 XLX      -0.743500
     29 O3           7.8000    -0.8710     0.2400 o          1 XLX      -0.743500
     30 H3          -5.9170     1.3300     0.1480 hc         1 XLX       0.029200
     31 H12         -5.0880     0.5680    -1.3030 hc         1 XLX       0.029200
     32 H14          4.8320    -0.8800     0.6410 hc         1 XLX       0.053200
     33 H15          4.4890    -0.3710    -1.0110 hc         1 XLX       0.053200
     34 H16          5.9440     1.5870    -0.7510 hc         1 XLX       0.013200
     35 H17          6.3000     1.0590     0.9730 hc         1 XLX       0.013200
@<TRIPOS>BOND
     1     1     2 2   
     2     2     3 1   
     3     2     4 1   
     4     3    11 1   
     5     3    12 1   
     6     3    25 1   
     7     4     5 1   
     8     4    13 1   
     9     5     6 1   
    10     5    14 1   
    11     5    15 1   
    12     6     7 1   
    13     6    16 1   
    14     6    17 1   
    15     7     8 1   
    16     7    18 1   
    17     8     9 2   
    18     8    10 1   
    19    10    19 1   
    20    10    20 1   
    21    10    21 1   
    22    21    22 1   
    23    21    30 1   
    24    21    31 1   
    25    22    23 1   
    26    22    24 1   
    27    25    26 1   
    28    25    32 1   
    29    25    33 1   
    30    26    27 1   
    31    26    34 1   
    32    26    35 1   
    33    27    28 1   
    34    27    29 1   
@<TRIPOS>SUBSTRUCTURE
     1 XLX         1 TEMP              0 ****  ****    0 ROOT
