@<TRIPOS>MOLECULE
XLY
   25    26     1     0     0
SMALL
bcc


@<TRIPOS>ATOM
      1 N1          -9.4320    -7.7310    96.8500 ns         1 XLY      -0.576900
      2 C4          -5.9440    -5.0340    96.2320 ca         1 XLY      -0.233000
      3 C5          -6.1710    -3.7360    96.6200 ca         1 XLY      -0.058000
      4 C6          -7.4490    -3.3300    97.0050 ca         1 XLY      -0.198000
      5 C7          -8.4660    -4.2570    96.9700 ca         1 XLY      -0.034000
      6 C8          -8.2690    -5.5950    96.5920 ca         1 XLY      -0.227600
      7 C9          -9.5120    -6.4170    96.5820 c          1 XLY       0.731100
      8 C1          -8.2390    -8.5020    97.1330 c3         1 XLY       0.105700
      9 C           -8.6510    -9.9230    97.4820 c3         1 XLY      -0.108100
     10 C3          -6.9710    -6.0060    96.2080 ca         1 XLY       0.235600
     11 N           -6.6090    -7.2420    95.7660 nu         1 XLY      -0.780600
     12 C2          -7.3060    -8.4920    95.9300 c3         1 XLY       0.211800
     13 H11        -10.3060    -8.2340    96.8050 hn         1 XLY       0.316500
     14 H7          -4.9450    -5.3350    95.9370 ha         1 XLY       0.124000
     15 H8          -5.3470    -3.0350    96.6280 ha         1 XLY       0.128000
     16 H9          -7.6400    -2.3140    97.3200 ha         1 XLY       0.137000
     17 H10         -9.4640    -3.9510    97.2520 ha         1 XLY       0.149000
     18 H3          -7.7150    -8.0680    97.9910 h1         1 XLY       0.063700
     19 H           -9.3570    -9.9330    98.3120 hc         1 XLY       0.047700
     20 H2          -9.1170   -10.4200    96.6290 hc         1 XLY       0.047700
     21 H1          -7.7800   -10.5060    97.7790 hc         1 XLY       0.047700
     22 H6          -5.6300    -7.3350    95.5550 hn         1 XLY       0.424800
     23 H4          -6.5460    -9.2650    96.0530 h1         1 XLY       0.048200
     24 H5          -7.8870    -8.7570    95.0390 h1         1 XLY       0.048200
     25 O          -10.6030    -5.8890    96.3780 o          1 XLY      -0.653500
@<TRIPOS>BOND
     1     1     7 1   
     2     1     8 1   
     3     1    13 1   
     4     2     3 ar  
     5     2    10 ar  
     6     2    14 1   
     7     3     4 ar  
     8     3    15 1   
     9     4     5 ar  
    10     4    16 1   
    11     5     6 ar  
    12     5    17 1   
    13     6     7 1   
    14     6    10 ar  
    15     7    25 2   
    16     8     9 1   
    17     8    12 1   
    18     8    18 1   
    19     9    19 1   
    20     9    20 1   
    21     9    21 1   
    22    10    11 1   
    23    11    12 1   
    24    11    22 1   
    25    12    23 1   
    26    12    24 1   
@<TRIPOS>SUBSTRUCTURE
     1 XLY         1 TEMP              0 ****  ****    0 ROOT
