@<TRIPOS>MOLECULE
XLY
   25    26     1     0     0
SMALL
No Charge or Current Charge


@<TRIPOS>ATOM
      1 N1          -9.4370    -7.7760    96.9550 ns         1 XLY      -0.509900
      2 C4          -5.9040    -5.0080    96.2930 ca         1 XLY      -0.215000
      3 C5          -6.1430    -3.6570    96.5700 ca         1 XLY      -0.040000
      4 C6          -7.4430    -3.2390    96.8620 ca         1 XLY      -0.180000
      5 C7          -8.4910    -4.1700    96.8840 ca         1 XLY      -0.016000
      6 C8          -8.2670    -5.5470    96.6230 ca         1 XLY      -0.227600
      7 C9          -9.4970    -6.4310    96.6800 c          1 XLY       0.588600
      8 C1          -8.2500    -8.5970    97.1430 c3         1 XLY       0.105700
      9 C           -8.6690   -10.0550    97.4170 c3         1 XLY      -0.108100
     10 C3          -6.9430    -5.9560    96.3100 ca         1 XLY       0.374000
     11 N           -6.5400    -7.2470    95.9750 nu         1 XLY      -0.974200
     12 C2          -7.3260    -8.4810    95.9170 c3         1 XLY       0.211800
     13 H11        -10.3360    -8.2410    96.9800 hn         1 XLY       0.316500
     14 H7          -4.8900    -5.3180    96.0560 ha         1 XLY       0.106000
     15 H8          -5.3260    -2.9380    96.5520 ha         1 XLY       0.110000
     16 H9          -7.6430    -2.1910    97.0750 ha         1 XLY       0.119000
     17 H10         -9.4900    -3.8100    97.1220 ha         1 XLY       0.131000
     18 H3          -7.7120    -8.2340    98.0290 h1         1 XLY       0.063700
     19 H           -9.3160   -10.1110    98.3010 hc         1 XLY       0.047700
     20 H2          -9.2140   -10.4740    96.5620 hc         1 XLY       0.047700
     21 H1          -7.7880   -10.6800    97.6040 hc         1 XLY       0.047700
     22 H6          -5.5470    -7.3360    95.7560 hn         1 XLY       0.480000
     23 H4          -6.6430    -9.3420    95.8880 h1         1 XLY       0.048200
     24 H5          -7.9330    -8.5100    95.0010 h1         1 XLY       0.048200
     25 O          -10.6070    -5.9580    96.4930 o          1 XLY      -0.578000
@<TRIPOS>BOND
     1     1     7 1   
     2     1     8 1   
     3     1    13 1   
     4     2     3 ar  
     5     2    10 ar  
     6     2    14 1   
     7     3     4 ar  
     8     3    15 1   
     9     4     5 ar  
    10     4    16 1   
    11     5     6 ar  
    12     5    17 1   
    13     6     7 1   
    14     6    10 ar  
    15     7    25 2   
    16     8     9 1   
    17     8    12 1   
    18     8    18 1   
    19     9    19 1   
    20     9    20 1   
    21     9    21 1   
    22    10    11 1   
    23    11    12 1   
    24    11    22 1   
    25    12    23 1   
    26    12    24 1   
@<TRIPOS>SUBSTRUCTURE
     1 XLY         1 TEMP              0 ****  ****    0 ROOT
