@<TRIPOS>MOLECULE
XLZ
   60    63     1     0     0
SMALL
abcg2


@<TRIPOS>ATOM
      1 C10        -20.7280   -10.9630     8.2170 ca         1 XLZ      -0.065000
      2 C11        -20.2880   -11.2160     6.9320 ca         1 XLZ      -0.108000
      3 C12        -20.6110   -12.3960     6.2620 ca         1 XLZ      -0.111300
      4 C15        -21.3410   -10.3300     3.7050 c3         1 XLZ      -0.333100
      5 C18        -21.3880   -13.3230     6.9510 ca         1 XLZ       0.149000
      6 C13        -20.1380   -12.6210     4.8670 c3         1 XLZ      -0.207100
      7 C01        -22.4100   -12.5900    16.3120 c3         1 XLZ      -0.101100
      8 C02        -22.7850   -11.9650    14.9790 c3         1 XLZ       0.147600
      9 C03        -22.2430   -12.6700    13.7580 ca         1 XLZ      -0.136300
     10 C04        -21.6830   -13.9320    13.7900 ca         1 XLZ      -0.099000
     11 C05        -21.1670   -14.5410    12.6340 ca         1 XLZ      -0.165000
     12 C06        -21.1990   -13.9020    11.4130 ca         1 XLZ      -0.057000
     13 C07        -21.7740   -12.6280    11.3350 ca         1 XLZ      -0.083800
     14 C08        -21.9610   -11.6810    10.2730 cc         1 XLZ      -0.157400
     15 C09        -21.5180   -11.8930     8.8930 ca         1 XLZ       0.082200
     16 C20        -21.8340   -13.0840     8.2400 ca         1 XLZ      -0.114000
     17 C21        -22.5720   -10.5790    10.8300 cd         1 XLZ      -0.046300
     18 C22        -23.1090    -9.2910    10.2420 c          1 XLZ       0.723200
     19 C26        -22.2850   -12.0350    12.5090 ca         1 XLZ      -0.050200
     20 C28        -25.1770   -12.7920    14.9820 cc         1 XLZ      -0.206000
     21 C29        -26.3600   -12.1370    14.7450 cd         1 XLZ       0.194300
     22 C30        -27.7560   -12.6620    14.7350 c3         1 XLZ      -0.089700
     23 C31        -27.8470   -14.1350    15.1060 c3         1 XLZ      -0.080400
     24 C32        -29.2790   -14.6470    15.0770 c3         1 XLZ       0.147800
     25 N25        -22.7500   -10.8050    12.1650 na         1 XLZ      -0.188700
     26 N27        -24.2380   -11.8370    14.8670 na         1 XLZ       0.127800
     27 N33        -29.3350   -16.0490    15.4620 n8         1 XLZ      -0.999200
     28 N34        -26.0630   -10.8410    14.4990 nd         1 XLZ      -0.354000
     29 N35        -24.7870   -10.6730    14.5750 nc         1 XLZ      -0.205800
     30 O16        -22.6860   -12.5620     4.0650 o          1 XLZ      -0.525500
     31 O17        -20.8720   -12.5340     2.3290 o          1 XLZ      -0.525500
     32 O23        -23.0790    -9.1800     9.0070 o          1 XLZ      -0.693000
     33 O24        -23.5460    -8.4790    11.0810 o          1 XLZ      -0.693000
     34 S14        -21.3650   -12.1090     3.6390 s6         1 XLZ       1.065000
     35 CL19       -21.8040   -14.8390     6.2180 cl         1 XLZ      -0.226000
     36 H101       -20.4440   -10.0430     8.7070 ha         1 XLZ       0.138000
     37 H111       -19.6660   -10.4840     6.4300 ha         1 XLZ       0.099000
     38 H151       -21.6570    -9.9900     4.6890 h1         1 XLZ       0.104033
     39 H153       -20.3410    -9.9670     3.4790 h1         1 XLZ       0.104033
     40 H152       -22.0440    -9.9790     2.9510 h1         1 XLZ       0.104033
     41 H132       -19.9460   -13.6720     4.6410 h1         1 XLZ       0.096700
     42 H131       -19.2290   -12.0590     4.6450 h1         1 XLZ       0.096700
     43 H013       -21.3260   -12.6260    16.4120 hc         1 XLZ       0.045367
     44 H021       -22.4230   -10.9340    14.9760 h1         1 XLZ       0.090700
     45 H041       -21.6240   -14.4730    14.7260 ha         1 XLZ       0.092000
     46 H051       -20.7300   -15.5280    12.7120 ha         1 XLZ       0.096000
     47 H061       -20.7820   -14.3800    10.5360 ha         1 XLZ       0.110000
     48 H201       -22.4470   -13.8240     8.7370 ha         1 XLZ       0.130000
     49 H281       -24.9440   -13.8190    15.2100 h4         1 XLZ       0.163000
     50 H302       -28.3660   -12.0710    15.4240 hc         1 XLZ       0.054700
     51 H301       -28.1880   -12.5030    13.7420 hc         1 XLZ       0.054700
     52 H311       -27.2390   -14.7280    14.4150 hc         1 XLZ       0.046700
     53 H312       -27.4330   -14.2960    16.1050 hc         1 XLZ       0.046700
     54 H322       -29.8760   -14.0730    15.7900 h1         1 XLZ       0.027200
     55 H321       -29.7080   -14.4440    14.0850 h1         1 XLZ       0.027200
     56 H251       -23.2460   -10.1550    12.7580 hn         1 XLZ       0.387000
     57 H331       -30.2990   -16.3580    15.4730 hn         1 XLZ       0.388500
     58 H332       -28.8800   -16.6090    14.7500 hn         1 XLZ       0.388500
     59 H011       -22.8050   -11.9870    17.1280 hc         1 XLZ       0.045367
     60 H012       -22.7930   -13.6040    16.4230 hc         1 XLZ       0.045367
@<TRIPOS>BOND
     1     1     2 ar  
     2     1    15 ar  
     3     1    36 1   
     4     2     3 ar  
     5     2    37 1   
     6     3     5 ar  
     7     3     6 1   
     8     4    34 1   
     9     4    38 1   
    10     4    39 1   
    11     4    40 1   
    12     5    16 ar  
    13     5    35 1   
    14     6    34 1   
    15     6    41 1   
    16     6    42 1   
    17     7     8 1   
    18     7    43 1   
    19     7    59 1   
    20     7    60 1   
    21     8     9 1   
    22     8    26 1   
    23     8    44 1   
    24     9    10 ar  
    25     9    19 ar  
    26    10    11 ar  
    27    10    45 1   
    28    11    12 ar  
    29    11    46 1   
    30    12    13 ar  
    31    12    47 1   
    32    13    14 1   
    33    13    19 ar  
    34    14    15 1   
    35    14    17 2   
    36    15    16 ar  
    37    16    48 1   
    38    17    18 1   
    39    17    25 1   
    40    18    32 1   
    41    18    33 1   
    42    19    25 1   
    43    20    21 2   
    44    20    26 1   
    45    20    49 1   
    46    21    22 1   
    47    21    28 1   
    48    22    23 1   
    49    22    50 1   
    50    22    51 1   
    51    23    24 1   
    52    23    52 1   
    53    23    53 1   
    54    24    27 1   
    55    24    54 1   
    56    24    55 1   
    57    25    56 1   
    58    26    29 1   
    59    27    57 1   
    60    27    58 1   
    61    28    29 2   
    62    30    34 2   
    63    31    34 2   
@<TRIPOS>SUBSTRUCTURE
     1 XLZ         1 TEMP              0 ****  ****    0 ROOT
