@<TRIPOS>MOLECULE
XLZ
   60    63     1     0     0
SMALL
No Charge or Current Charge


@<TRIPOS>ATOM
      1 C10        -20.6960   -11.1860     8.3210 ca         1 XLZ      -0.065000
      2 C11        -20.3290   -11.4560     6.9920 ca         1 XLZ      -0.108000
      3 C12        -20.8740   -12.5640     6.3120 ca         1 XLZ      -0.111300
      4 C15        -21.4110   -10.2880     3.9470 c3         1 XLZ      -0.333100
      5 C18        -21.7810   -13.4090     6.9940 ca         1 XLZ       0.149000
      6 C13        -20.4510   -12.8250     4.8610 c3         1 XLZ      -0.207100
      7 C01        -22.2830   -12.4330    16.4950 c3         1 XLZ      -0.101100
      8 C02        -22.6850   -11.8380    15.1240 c3         1 XLZ       0.147600
      9 C03        -22.0880   -12.5570    13.8980 ca         1 XLZ      -0.136300
     10 C04        -21.4050   -13.8000    13.9910 ca         1 XLZ      -0.099000
     11 C05        -20.8690   -14.4240    12.8400 ca         1 XLZ      -0.165000
     12 C06        -21.0020   -13.8220    11.5750 ca         1 XLZ      -0.057000
     13 C07        -21.6830   -12.6020    11.5060 ca         1 XLZ      -0.083800
     14 C08        -21.9680   -11.7660    10.3830 cc         1 XLZ      -0.157400
     15 C09        -21.6150   -12.0150     8.9890 ca         1 XLZ       0.082200
     16 C20        -22.1420   -13.1330     8.3230 ca         1 XLZ      -0.114000
     17 C21        -22.6970   -10.6610    10.8420 cd         1 XLZ      -0.046300
     18 C22        -23.2830    -9.5350    10.0340 c          1 XLZ       0.723200
     19 C26        -22.2060   -11.9890    12.6110 ca         1 XLZ      -0.050200
     20 C28        -25.0840   -12.7020    14.9690 cc         1 XLZ      -0.206000
     21 C29        -26.2690   -12.0310    14.8570 cd         1 XLZ       0.194300
     22 C30        -27.6700   -12.5840    14.7570 c3         1 XLZ      -0.089700
     23 C31        -27.7450   -14.1290    14.7850 c3         1 XLZ      -0.080400
     24 C32        -29.1900   -14.6600    14.6830 c3         1 XLZ       0.147800
     25 N25        -22.8280   -10.7970    12.2510 na         1 XLZ      -0.188700
     26 N27        -24.1510   -11.6980    15.0130 na         1 XLZ       0.127800
     27 N33        -29.2280   -16.1330    14.7160 n8         1 XLZ      -0.999200
     28 N34        -26.0230   -10.6740    14.8410 nd         1 XLZ      -0.354000
     29 N35        -24.7370   -10.4680    14.9380 nc         1 XLZ      -0.205800
     30 O16        -22.8850   -12.4730     3.8070 o          1 XLZ      -0.525500
     31 O17        -20.8660   -12.2680     2.2910 o          1 XLZ      -0.525500
     32 O23        -23.1740    -9.5200     8.8160 o          1 XLZ      -0.693000
     33 O24        -23.8800    -8.6590    10.6460 o          1 XLZ      -0.693000
     34 S14        -21.4950   -12.0450     3.6000 s6         1 XLZ       1.065000
     35 Cl19       -22.4710   -14.8360     6.2200 cl         1 XLZ      -0.226000
     36 H101       -20.2670   -10.3310     8.8380 ha         1 XLZ       0.138000
     37 H111       -19.6190   -10.8010     6.4930 ha         1 XLZ       0.099000
     38 H151       -21.8400   -10.1230     4.9400 h1         1 XLZ       0.104033
     39 H153       -20.3580    -9.9910     3.9140 h1         1 XLZ       0.104033
     40 H152       -21.9920    -9.7720     3.1760 h1         1 XLZ       0.104033
     41 H132       -20.4510   -13.8960     4.6350 h1         1 XLZ       0.096700
     42 H131       -19.4400   -12.4430     4.6860 h1         1 XLZ       0.096700
     43 H013       -21.1920   -12.4740    16.5950 hc         1 XLZ       0.045367
     44 H021       -22.2710   -10.8210    15.1110 h1         1 XLZ       0.090700
     45 H041       -21.2810   -14.3020    14.9460 ha         1 XLZ       0.092000
     46 H051       -20.3490   -15.3740    12.9330 ha         1 XLZ       0.096000
     47 H061       -20.5910   -14.2900    10.6830 ha         1 XLZ       0.110000
     48 H201       -22.8340   -13.7910     8.8410 ha         1 XLZ       0.130000
     49 H281       -24.8410   -13.7550    15.0110 h4         1 XLZ       0.163000
     50 H302       -28.2740   -12.1850    15.5820 hc         1 XLZ       0.054700
     51 H301       -28.1350   -12.2230    13.8310 hc         1 XLZ       0.054700
     52 H311       -27.1520   -14.5320    13.9540 hc         1 XLZ       0.046700
     53 H312       -27.2930   -14.4940    15.7150 hc         1 XLZ       0.046700
     54 H322       -29.7860   -14.2730    15.5210 h1         1 XLZ       0.027200
     55 H321       -29.6460   -14.3160    13.7430 h1         1 XLZ       0.027200
     56 H251       -23.3380   -10.1630    12.8570 hn         1 XLZ       0.387000
     57 H331       -30.1980   -16.4450    14.5830 hn         1 XLZ       0.388500
     58 H332       -28.7420   -16.4980    13.8880 hn         1 XLZ       0.388500
     59 H011       -22.6720   -11.8090    17.3090 hc         1 XLZ       0.045367
     60 H012       -22.6880   -13.4440    16.6220 hc         1 XLZ       0.045367
@<TRIPOS>BOND
     1     1     2 ar  
     2     1    15 ar  
     3     1    36 1   
     4     2     3 ar  
     5     2    37 1   
     6     3     5 ar  
     7     3     6 1   
     8     4    34 1   
     9     4    38 1   
    10     4    39 1   
    11     4    40 1   
    12     5    16 ar  
    13     5    35 1   
    14     6    34 1   
    15     6    41 1   
    16     6    42 1   
    17     7     8 1   
    18     7    43 1   
    19     7    59 1   
    20     7    60 1   
    21     8     9 1   
    22     8    26 1   
    23     8    44 1   
    24     9    10 ar  
    25     9    19 ar  
    26    10    11 ar  
    27    10    45 1   
    28    11    12 ar  
    29    11    46 1   
    30    12    13 ar  
    31    12    47 1   
    32    13    14 1   
    33    13    19 ar  
    34    14    15 1   
    35    14    17 2   
    36    15    16 ar  
    37    16    48 1   
    38    17    18 1   
    39    17    25 1   
    40    18    32 1   
    41    18    33 1   
    42    19    25 1   
    43    20    21 2   
    44    20    26 1   
    45    20    49 1   
    46    21    22 1   
    47    21    28 1   
    48    22    23 1   
    49    22    50 1   
    50    22    51 1   
    51    23    24 1   
    52    23    52 1   
    53    23    53 1   
    54    24    27 1   
    55    24    54 1   
    56    24    55 1   
    57    25    56 1   
    58    26    29 1   
    59    27    57 1   
    60    27    58 1   
    61    28    29 2   
    62    30    34 2   
    63    31    34 2   
@<TRIPOS>SUBSTRUCTURE
     1 XLZ         1 TEMP              0 ****  ****    0 ROOT
