@<TRIPOS>MOLECULE
XM0
   21    22     1     0     0
SMALL
No Charge or Current Charge


@<TRIPOS>ATOM
      1 C1          -2.6560     0.7120    -0.0100 ca         1 XM0      -0.111000
      2 C2          -2.6400    -0.6990     0.0020 ca         1 XM0      -0.111000
      3 C3          -1.4130    -1.3910     0.0030 ca         1 XM0      -0.095500
      4 C4          -0.2180    -0.6550    -0.0050 ca         1 XM0      -0.088800
      5 C5          -0.2340     0.7250    -0.0170 ca         1 XM0      -0.088800
      6 C6          -1.4460     1.4330    -0.0210 ca         1 XM0      -0.095500
      7 C7           1.1530     1.3110    -0.0350 c5         1 XM0      -0.049100
      8 C8           2.0190     0.0650     0.4070 c5         1 XM0       0.152500
      9 C9           1.1820    -1.2090    -0.0130 c5         1 XM0      -0.049100
     10 N10          3.3740     0.0770    -0.1700 n8         1 XM0      -0.987200
     11 H1          -3.6050     1.2440    -0.0120 ha         1 XM0       0.111000
     12 H2          -3.5760    -1.2530     0.0090 ha         1 XM0       0.111000
     13 H6          -1.4510     2.5210    -0.0330 ha         1 XM0       0.113000
     14 H3          -1.3930    -2.4790     0.0100 ha         1 XM0       0.113000
     15 H91C         1.3160    -2.0370     0.6920 hc         1 XM0       0.055200
     16 H92C         1.4540    -1.5740    -1.0110 hc         1 XM0       0.055200
     17 H71C         1.4180     1.6650    -1.0380 hc         1 XM0       0.055200
     18 H72C         1.2680     2.1540     0.6560 hc         1 XM0       0.055200
     19 H8           2.1220     0.0760     1.5030 h1         1 XM0       0.064700
     20 H101         3.8590    -0.7890     0.0930 hn         1 XM0       0.394500
     21 H102         3.3020     0.0090    -1.1920 hn         1 XM0       0.394500
@<TRIPOS>BOND
     1     1     2 ar  
     2     1     6 ar  
     3     1    11 1   
     4     2     3 ar  
     5     2    12 1   
     6     3     4 ar  
     7     3    14 1   
     8     4     5 ar  
     9     4     9 1   
    10     5     6 ar  
    11     5     7 1   
    12     6    13 1   
    13     7     8 1   
    14     7    17 1   
    15     7    18 1   
    16     8     9 1   
    17     8    10 1   
    18     8    19 1   
    19     9    15 1   
    20     9    16 1   
    21    10    20 1   
    22    10    21 1   
@<TRIPOS>SUBSTRUCTURE
     1 XM0         1 TEMP              0 ****  ****    0 ROOT
