@<TRIPOS>MOLECULE
XM0
   21    22     1     0     0
SMALL
abcg2


@<TRIPOS>ATOM
      1 C1          -2.6410     0.7100     0.0440 ca         1 XM0      -0.111000
      2 C2          -2.6370    -0.6800     0.0510 ca         1 XM0      -0.111000
      3 C3          -1.4350    -1.3820     0.0090 ca         1 XM0      -0.095500
      4 C4          -0.2430    -0.6760    -0.0380 ca         1 XM0      -0.088800
      5 C5          -0.2470     0.7200    -0.0430 ca         1 XM0      -0.088800
      6 C6          -1.4440     1.4180    -0.0040 ca         1 XM0      -0.095500
      7 C7           1.1590     1.2420    -0.1030 c5         1 XM0      -0.049100
      8 C8           1.9920     0.0380     0.3680 c5         1 XM0       0.152500
      9 C9           1.1680    -1.1850    -0.0980 c5         1 XM0      -0.049100
     10 N10          3.3740     0.1200    -0.0500 n8         1 XM0      -0.987200
     11 H1          -3.5820     1.2450     0.0830 ha         1 XM0       0.111000
     12 H2          -3.5740    -1.2220     0.0950 ha         1 XM0       0.111000
     13 H6          -1.4530     2.5020    -0.0020 ha         1 XM0       0.113000
     14 H3          -1.4370    -2.4650     0.0190 ha         1 XM0       0.113000
     15 H91C         1.3440    -2.0720     0.5130 hc         1 XM0       0.055200
     16 H92C         1.4350    -1.4430    -1.1300 hc         1 XM0       0.055200
     17 H71C         1.4230     1.5000    -1.1360 hc         1 XM0       0.055200
     18 H72C         1.3250     2.1340     0.5040 hc         1 XM0       0.055200
     19 H8           1.9800     0.0390     1.4630 h1         1 XM0       0.064700
     20 H101         3.8950    -0.6600     0.3320 hn         1 XM0       0.394500
     21 H102         3.4330     0.0230    -1.0570 hn         1 XM0       0.394500
@<TRIPOS>BOND
     1     1     2 ar  
     2     1     6 ar  
     3     1    11 1   
     4     2     3 ar  
     5     2    12 1   
     6     3     4 ar  
     7     3    14 1   
     8     4     5 ar  
     9     4     9 1   
    10     5     6 ar  
    11     5     7 1   
    12     6    13 1   
    13     7     8 1   
    14     7    17 1   
    15     7    18 1   
    16     8     9 1   
    17     8    10 1   
    18     8    19 1   
    19     9    15 1   
    20     9    16 1   
    21    10    20 1   
    22    10    21 1   
@<TRIPOS>SUBSTRUCTURE
     1 XM0         1 TEMP              0 ****  ****    0 ROOT
