@<TRIPOS>MOLECULE
XM1
   51    54     1     0     0
SMALL
bcc


@<TRIPOS>ATOM
      1 C1           4.2990    -0.0500     0.0350 ca         1 XM1       0.767200
      2 CL1         -7.2690     2.5810     0.1850 cl         1 XM1      -0.110400
      3 C2           4.5630     1.3400    -0.0640 ca         1 XM1      -0.371400
      4 C3           3.8450     2.5690    -0.2320 cc         1 XM1      -0.159200
      5 C4           4.7770     3.5610    -0.2970 cd         1 XM1      -0.129100
      6 N5          -2.1330    -2.7810     2.3270 n8         1 XM1      -0.880800
      7 N6           6.0290     3.0220    -0.1850 na         1 XM1      -0.264100
      8 C7           5.9290     1.6790    -0.0570 ca         1 XM1       0.467800
      9 N8           5.3330    -0.8930     0.0870 nb         1 XM1      -0.828000
     10 C9           6.5750    -0.4210     0.0720 ca         1 XM1       0.705900
     11 N10          6.9600     0.8350     0.0190 nb         1 XM1      -0.753000
     12 N11          3.0580    -0.5970     0.0480 nh         1 XM1      -0.775300
     13 C12          2.8730    -2.0350     0.0020 c6         1 XM1       0.203300
     14 C13          1.6580    -2.3790    -0.8430 c6         1 XM1       0.085500
     15 N14          0.4750    -1.6830    -0.3670 n          1 XM1      -0.483800
     16 C15          0.6690    -0.2460    -0.3110 c6         1 XM1       0.085500
     17 C16          1.8810     0.0890     0.5420 c6         1 XM1       0.203300
     18 C17         -0.6940    -2.3490    -0.2070 c          1 XM1       0.692100
     19 O18         -0.7820    -3.5460    -0.4430 o          1 XM1      -0.592100
     20 C19         -1.9270    -1.5630     0.2220 c3         1 XM1      -0.130700
     21 C20         -2.6390    -1.0650    -1.0510 c3         1 XM1      -0.031100
     22 C21         -2.8260    -2.4240     1.0990 c3         1 XM1       0.157800
     23 C22         -3.8010    -0.1570    -0.7600 ca         1 XM1      -0.079300
     24 C23         -3.5840     1.1470    -0.3190 ca         1 XM1      -0.118500
     25 C24         -4.6400     1.9940    -0.0240 ca         1 XM1      -0.118500
     26 C25         -5.9380     1.5300    -0.1780 ca         1 XM1       0.027400
     27 C26         -6.1860     0.2420    -0.6230 ca         1 XM1      -0.118500
     28 C27         -5.1140    -0.5910    -0.9100 ca         1 XM1      -0.118500
     29 H3           2.7850     2.7320    -0.3180 ha         1 XM1       0.150000
     30 H4           4.6440     4.6230    -0.4210 h4         1 XM1       0.167000
     31 HN5         -2.0740    -1.9660     2.9260 hn         1 XM1       0.337300
     32 HN5A        -2.6860    -3.4550     2.8400 hn         1 XM1       0.337300
     33 H9           7.3610    -1.1680     0.1190 h5         1 XM1       0.045100
     34 H12          3.7520    -2.5050    -0.4290 h1         1 XM1       0.063700
     35 H12A         2.7460    -2.4360     1.0160 h1         1 XM1       0.063700
     36 H13          1.8490    -2.1020    -1.8860 h1         1 XM1       0.059200
     37 H13A         1.4900    -3.4520    -0.8080 h1         1 XM1       0.059200
     38 H15          0.8190     0.1410    -1.3250 h1         1 XM1       0.059200
     39 H15A        -0.1960     0.2600     0.1040 h1         1 XM1       0.059200
     40 H16          1.6890    -0.2200     1.5770 h1         1 XM1       0.063700
     41 H16A         2.0210     1.1620     0.5510 h1         1 XM1       0.063700
     42 H19         -1.6420    -0.6920     0.8170 hc         1 XM1       0.055700
     43 H20         -1.9210    -0.5330    -1.6810 hc         1 XM1       0.060200
     44 H20A        -2.9780    -1.9280    -1.6300 hc         1 XM1       0.060200
     45 H21         -3.0920    -3.3370     0.5640 h1         1 XM1       0.044200
     46 H21A        -3.7630    -1.8810     1.2730 h1         1 XM1       0.044200
     47 H23         -2.5720     1.5180    -0.2050 ha         1 XM1       0.134000
     48 H24         -4.4520     3.0030     0.3170 ha         1 XM1       0.148000
     49 H26         -7.2010    -0.1120    -0.7460 ha         1 XM1       0.148000
     50 H27         -5.3130    -1.5970    -1.2570 ha         1 XM1       0.134000
     51 HN6          6.8940     3.5360    -0.2230 hn         1 XM1       0.312700
@<TRIPOS>BOND
     1     1     3 ar  
     2     1     9 ar  
     3     1    12 1   
     4     2    26 1   
     5     3     4 1   
     6     3     8 ar  
     7     4     5 2   
     8     4    29 1   
     9     5     7 1   
    10     5    30 1   
    11     6    22 1   
    12     6    31 1   
    13     6    32 1   
    14     7     8 1   
    15     7    51 1   
    16     8    11 ar  
    17     9    10 ar  
    18    10    11 ar  
    19    10    33 1   
    20    12    13 1   
    21    12    17 1   
    22    13    14 1   
    23    13    34 1   
    24    13    35 1   
    25    14    15 1   
    26    14    36 1   
    27    14    37 1   
    28    15    16 1   
    29    15    18 1   
    30    16    17 1   
    31    16    38 1   
    32    16    39 1   
    33    17    40 1   
    34    17    41 1   
    35    18    19 2   
    36    18    20 1   
    37    20    21 1   
    38    20    22 1   
    39    20    42 1   
    40    21    23 1   
    41    21    43 1   
    42    21    44 1   
    43    22    45 1   
    44    22    46 1   
    45    23    24 ar  
    46    23    28 ar  
    47    24    25 ar  
    48    24    47 1   
    49    25    26 ar  
    50    25    48 1   
    51    26    27 ar  
    52    27    28 ar  
    53    27    49 1   
    54    28    50 1   
@<TRIPOS>SUBSTRUCTURE
     1 XM1         1 TEMP              0 ****  ****    0 ROOT
