@<TRIPOS>MOLECULE
XM1
   51    54     1     0     0
SMALL
No Charge or Current Charge


@<TRIPOS>ATOM
      1 C1           4.4920     0.0460     0.2300 ca         1 XM1       0.438900
      2 Cl1         -7.4020     2.5790     0.7960 cl         1 XM1      -0.202000
      3 C2           4.7930     1.3020    -0.3290 ca         1 XM1      -0.240800
      4 C3           4.0070     2.2090    -1.1160 cc         1 XM1      -0.209200
      5 C4           4.8210     3.2900    -1.4100 cd         1 XM1      -0.179100
      6 N5          -2.4940    -3.3460     1.8140 n8         1 XM1      -0.991200
      7 N6           6.0930     3.0670    -0.8250 na         1 XM1      -0.314400
      8 C7           6.0470     1.8390    -0.1820 ca         1 XM1       0.139500
      9 N8           5.4520    -0.6280     0.8980 nb         1 XM1      -0.302000
     10 C9           6.6610    -0.0250     0.9960 ca         1 XM1       0.179900
     11 N10          7.0100     1.1810     0.4890 nb         1 XM1      -0.227000
     12 N11          3.2180    -0.5520     0.1180 nh         1 XM1      -0.775300
     13 C12          3.0600    -2.0290     0.1990 c6         1 XM1       0.203300
     14 C13          1.7540    -2.5020    -0.4960 c6         1 XM1       0.085500
     15 N14          0.5140    -1.7630    -0.0960 n          1 XM1      -0.416800
     16 C15          0.7190    -0.2790     0.0100 c6         1 XM1       0.085500
     17 C16          2.0440     0.1470     0.7000 c6         1 XM1       0.203300
     18 C17         -0.7420    -2.2960    -0.4810 c          1 XM1       0.625100
     19 O18         -0.7950    -3.2760    -1.2190 o          1 XM1      -0.592100
     20 C19         -2.0400    -1.6350     0.0430 c3         1 XM1      -0.130700
     21 C20         -2.6760    -0.7870    -1.0920 c3         1 XM1      -0.031100
     22 C21         -3.0270    -2.6840     0.6050 c3         1 XM1       0.157800
     23 C22         -3.8590     0.0530    -0.6240 ca         1 XM1      -0.079300
     24 C23         -3.6440     1.1950     0.1730 ca         1 XM1      -0.100500
     25 C24         -4.7320     1.9710     0.6090 ca         1 XM1      -0.100500
     26 C25         -6.0400     1.6090     0.2500 ca         1 XM1       0.119000
     27 C26         -6.2630     0.4730    -0.5460 ca         1 XM1      -0.100500
     28 C27         -5.1740    -0.3030    -0.9830 ca         1 XM1      -0.100500
     29 H3           2.9780     2.0800    -1.4480 ha         1 XM1       0.200000
     30 H4           4.5970     4.1840    -1.9890 h4         1 XM1       0.217000
     31 HN5         -2.4110    -2.6530     2.5670 hn         1 XM1       0.392500
     32 HN5A        -3.1970    -4.0050     2.1720 hn         1 XM1       0.392500
     33 H9           7.4340    -0.5670     1.5380 h5         1 XM1       0.045100
     34 H12          3.9100    -2.5380    -0.2810 h1         1 XM1       0.063700
     35 H12A         3.0390    -2.3490     1.2520 h1         1 XM1       0.063700
     36 H13          1.8830    -2.3950    -1.5830 h1         1 XM1       0.059200
     37 H13A         1.6240    -3.5740    -0.2910 h1         1 XM1       0.059200
     38 H15          0.7100     0.1400    -1.0070 h1         1 XM1       0.059200
     39 H15A        -0.1010     0.1990     0.5560 h1         1 XM1       0.059200
     40 H16          1.9700    -0.0850     1.7730 h1         1 XM1       0.063700
     41 H16A         2.1490     1.2380     0.6190 h1         1 XM1       0.063700
     42 H19         -1.7920    -0.9450     0.8540 hc         1 XM1       0.055700
     43 H20         -1.9110    -0.1230    -1.5150 hc         1 XM1       0.060200
     44 H20A        -2.9780    -1.4510    -1.9130 hc         1 XM1       0.060200
     45 H21         -3.2430    -3.4450    -0.1580 h1         1 XM1       0.044200
     46 H21A        -3.9740    -2.1970     0.8750 h1         1 XM1       0.044200
     47 H23         -2.6330     1.4830     0.4540 ha         1 XM1       0.116000
     48 H24         -4.5630     2.8510     1.2250 ha         1 XM1       0.130000
     49 H26         -7.2760     0.1950    -0.8230 ha         1 XM1       0.130000
     50 H27         -5.3560    -1.1820    -1.5980 ha         1 XM1       0.116000
     51 HN6          6.9000     3.6830    -0.8700 hn         1 XM1       0.363000
@<TRIPOS>BOND
     1     1     3 ar  
     2     1     9 ar  
     3     1    12 1   
     4     2    26 1   
     5     3     4 1   
     6     3     8 ar  
     7     4     5 2   
     8     4    29 1   
     9     5     7 1   
    10     5    30 1   
    11     6    22 1   
    12     6    31 1   
    13     6    32 1   
    14     7     8 1   
    15     7    51 1   
    16     8    11 ar  
    17     9    10 ar  
    18    10    11 ar  
    19    10    33 1   
    20    12    13 1   
    21    12    17 1   
    22    13    14 1   
    23    13    34 1   
    24    13    35 1   
    25    14    15 1   
    26    14    36 1   
    27    14    37 1   
    28    15    16 1   
    29    15    18 1   
    30    16    17 1   
    31    16    38 1   
    32    16    39 1   
    33    17    40 1   
    34    17    41 1   
    35    18    19 2   
    36    18    20 1   
    37    20    21 1   
    38    20    22 1   
    39    20    42 1   
    40    21    23 1   
    41    21    43 1   
    42    21    44 1   
    43    22    45 1   
    44    22    46 1   
    45    23    24 ar  
    46    23    28 ar  
    47    24    25 ar  
    48    24    47 1   
    49    25    26 ar  
    50    25    48 1   
    51    26    27 ar  
    52    27    28 ar  
    53    27    49 1   
    54    28    50 1   
@<TRIPOS>SUBSTRUCTURE
     1 XM1         1 TEMP              0 ****  ****    0 ROOT
