@<TRIPOS>MOLECULE
XM2
   87    89     1     0     0
SMALL
No Charge or Current Charge


@<TRIPOS>ATOM
      1 C1          45.4060     9.9290   -18.5620 ca         1 XM2      -0.101000
      2 C10         44.9140     8.5430   -15.0640 c3         1 XM2      -0.108100
      3 C11         43.0380     4.2720   -15.1350 c3         1 XM2       0.039700
      4 C12         42.0030     3.1810   -14.7650 c          1 XM2       0.594100
      5 C13         43.2620     8.3210   -13.1480 c3         1 XM2      -0.108100
      6 C14         41.7650     0.8620   -13.7690 c3         1 XM2       0.038700
      7 C15         42.0630     0.3420   -12.3350 c          1 XM2       0.582100
      8 C16         42.4830     8.0440   -15.5770 c3         1 XM2      -0.108100
      9 C17         41.3070    -1.2910   -10.5670 c3         1 XM2       0.102700
     10 C18         42.0030     0.3150   -16.2730 ca         1 XM2      -0.088300
     11 C19         39.8950    -1.6930   -10.0630 c3         1 XM2      -0.070400
     12 C2          46.2850     8.8430   -18.7130 ca         1 XM2      -0.119500
     13 C20         38.8590    -0.5330   -10.0110 c5         1 XM2      -0.159700
     14 C21         39.2580     0.6700    -9.1110 c5         1 XM2      -0.094400
     15 C22         37.8780     1.3330    -8.8530 c5         1 XM2       0.100000
     16 C23         40.7540     0.3440   -16.9240 ca         1 XM2      -0.104500
     17 C24         37.4970    -0.9450    -9.4360 c          1 XM2       0.566000
     18 C25         40.6450     0.8590   -18.2280 ca         1 XM2      -0.104000
     19 C26         41.7840     1.3500   -18.8880 ca         1 XM2      -0.104000
     20 C28         43.0330     1.3220   -18.2460 ca         1 XM2      -0.104000
     21 C29         43.1430     0.8030   -16.9440 ca         1 XM2      -0.104500
     22 C3          45.7870     7.5770   -19.0650 ca         1 XM2      -0.080500
     23 C30         43.0310     5.4310   -14.0940 c3         1 XM2       0.161300
     24 C31         43.4390     4.9780   -12.6710 c3         1 XM2      -0.123100
     25 C32         42.3100    -2.4780   -10.6010 c3         1 XM2       0.151600
     26 C34         42.1140    -0.2060   -14.8430 c3         1 XM2      -0.038100
     27 C4          44.4050     7.3880   -19.2710 ca         1 XM2      -0.131300
     28 C5          43.5300     8.4830   -19.1230 ca         1 XM2      -0.080500
     29 C6          44.0280     9.7480   -18.7660 ca         1 XM2      -0.119500
     30 C7          43.8550     6.0140   -19.6470 c3         1 XM2       0.231900
     31 C9          43.6900     5.0760   -17.4400 c          1 XM2       0.649100
     32 N10         42.7480     4.7560   -16.5060 ns         1 XM2      -0.482900
     33 N13         42.4980     2.1220   -14.0300 ns         1 XM2      -0.476900
     34 N16         41.2180    -0.6510   -11.8870 ns         1 XM2      -0.494900
     35 N23         37.0250     0.1500    -8.7660 ns         1 XM2      -0.515900
     36 O26         36.9900    -2.0520    -9.3510 o          1 XM2      -0.558000
     37 O29         44.8930     4.9150   -17.3110 o          1 XM2      -0.533000
     38 O33         40.8300     3.2360   -15.1150 o          1 XM2      -0.618100
     39 O34         42.5170    -3.0230    -9.2890 oh         1 XM2      -0.657000
     40 O38         42.9750     0.7770   -11.6420 o          1 XM2      -0.610100
     41 O8          43.0530     5.5140   -18.5620 os         1 XM2      -0.461100
     42 H1          45.7910    10.9080   -18.2850 ha         1 XM2       0.112000
     43 H2          45.7460     8.3880   -14.3670 hc         1 XM2       0.043033
     44 H3          45.2150     8.1560   -16.0450 hc         1 XM2       0.043033
     45 H4          44.7460     9.6220   -15.1610 hc         1 XM2       0.043033
     46 H5          44.0280     3.8010   -15.1320 h1         1 XM2       0.098700
     47 H6          44.0640     8.1060   -12.4320 hc         1 XM2       0.043033
     48 H7          43.1010     9.4050   -13.1520 hc         1 XM2       0.043033
     49 H8          42.3370     7.8530   -12.7910 hc         1 XM2       0.043033
     50 H9          40.6870     1.0640   -13.8150 h1         1 XM2       0.079700
     51 H10         42.3120     9.1160   -15.7350 hc         1 XM2       0.043033
     52 H11         42.7250     7.6010   -16.5480 hc         1 XM2       0.043033
     53 H12         41.5400     7.6130   -15.2230 hc         1 XM2       0.043033
     54 H13         41.7100    -0.5520    -9.8610 h1         1 XM2       0.092700
     55 H14         39.5110    -2.4960   -10.7050 hc         1 XM2       0.067200
     56 H15         39.9920    -2.1290    -9.0610 hc         1 XM2       0.067200
     57 H16         47.3520     8.9820   -18.5530 ha         1 XM2       0.113500
     58 H17         38.6690    -0.1550   -11.0220 hc         1 XM2       0.093700
     59 H18         39.7050     0.3310    -8.1680 hc         1 XM2       0.063200
     60 H19         39.9710     1.3510    -9.5880 hc         1 XM2       0.063200
     61 H20         37.8730     1.9320    -7.9330 h1         1 XM2       0.040700
     62 H21         39.8650    -0.0230   -16.4150 ha         1 XM2       0.108500
     63 H22         39.6780     0.8820   -18.7230 ha         1 XM2       0.115000
     64 H23         41.6990     1.7540   -19.8950 ha         1 XM2       0.115000
     65 H24         43.9150     1.7050   -18.7540 ha         1 XM2       0.115000
     66 H25         44.1130     0.7930   -16.4530 ha         1 XM2       0.108500
     67 H26         46.4750     6.7410   -19.1720 ha         1 XM2       0.120000
     68 H27         42.0170     5.8470   -14.0470 h1         1 XM2       0.047700
     69 H28         43.4900     5.8250   -11.9800 hc         1 XM2       0.049033
     70 H29         42.7090     4.2710   -12.2620 hc         1 XM2       0.049033
     71 H30         44.4220     4.4910   -12.6860 hc         1 XM2       0.049033
     72 H31         41.9260    -3.2530   -11.2780 h1         1 XM2       0.023200
     73 H32         43.2650    -2.1240   -11.0110 h1         1 XM2       0.023200
     74 H33         41.4620    -1.0790   -14.7120 hc         1 XM2       0.065700
     75 H34         43.1350    -0.5670   -14.6610 hc         1 XM2       0.065700
     76 H35         42.4610     8.3490   -19.2770 ha         1 XM2       0.120000
     77 H36         43.3460    10.5860   -18.6480 ha         1 XM2       0.113500
     78 H37         43.2390     6.1200   -20.5500 h1         1 XM2       0.066700
     79 H38         44.6720     5.3200   -19.8920 h1         1 XM2       0.066700
     80 H39         41.7840     4.8880   -16.7850 hn         1 XM2       0.336500
     81 H40         43.4660     2.1750   -13.7350 hn         1 XM2       0.332500
     82 H41         40.4890    -0.9560   -12.5210 hn         1 XM2       0.319500
     83 H42         43.1630    -3.7580    -9.3810 ho         1 XM2       0.449000
     84 H43         37.5780     1.9780    -9.6910 h1         1 XM2       0.040700
     85 H44         36.1660     0.0690    -8.2350 hn         1 XM2       0.325500
     86 O32         44.0000     6.4200   -14.5280 os         1 XM2      -0.459000
     87 C8          43.6390     7.8280   -14.5660 c3         1 XM2       0.194000
@<TRIPOS>BOND
     1     1    12 ar  
     2     1    29 ar  
     3     1    42 1   
     4     2    43 1   
     5     2    44 1   
     6     2    45 1   
     7     2    87 1   
     8     3     4 1   
     9     3    23 1   
    10     3    32 1   
    11     3    46 1   
    12     4    33 1   
    13     4    38 2   
    14     5    47 1   
    15     5    48 1   
    16     5    49 1   
    17     5    87 1   
    18     6     7 1   
    19     6    26 1   
    20     6    33 1   
    21     6    50 1   
    22     7    34 1   
    23     7    40 2   
    24     8    51 1   
    25     8    52 1   
    26     8    53 1   
    27     8    87 1   
    28     9    11 1   
    29     9    25 1   
    30     9    34 1   
    31     9    54 1   
    32    10    16 ar  
    33    10    21 ar  
    34    10    26 1   
    35    11    13 1   
    36    11    55 1   
    37    11    56 1   
    38    12    22 ar  
    39    12    57 1   
    40    13    14 1   
    41    13    17 1   
    42    13    58 1   
    43    14    15 1   
    44    14    59 1   
    45    14    60 1   
    46    15    35 1   
    47    15    61 1   
    48    15    84 1   
    49    16    18 ar  
    50    16    62 1   
    51    17    35 1   
    52    17    36 2   
    53    18    19 ar  
    54    18    63 1   
    55    19    20 ar  
    56    19    64 1   
    57    20    21 ar  
    58    20    65 1   
    59    21    66 1   
    60    22    27 ar  
    61    22    67 1   
    62    23    24 1   
    63    23    68 1   
    64    23    86 1   
    65    24    69 1   
    66    24    70 1   
    67    24    71 1   
    68    25    39 1   
    69    25    72 1   
    70    25    73 1   
    71    26    74 1   
    72    26    75 1   
    73    27    28 ar  
    74    27    30 1   
    75    28    29 ar  
    76    28    76 1   
    77    29    77 1   
    78    30    41 1   
    79    30    78 1   
    80    30    79 1   
    81    31    32 1   
    82    31    37 2   
    83    31    41 1   
    84    32    80 1   
    85    33    81 1   
    86    34    82 1   
    87    35    85 1   
    88    39    83 1   
    89    86    87 1   
@<TRIPOS>SUBSTRUCTURE
     1 XM2         1 TEMP              0 ****  ****    0 ROOT
