@<TRIPOS>MOLECULE
XM2
   87    89     1     0     0
SMALL
bcc


@<TRIPOS>ATOM
      1 C1          44.2250    10.3650   -17.0880 ca         1 XM2      -0.119000
      2 C10         44.1910     7.9660   -14.1390 c3         1 XM2      -0.108100
      3 C11         42.9260     3.6950   -15.1620 c3         1 XM2       0.039700
      4 C12         42.1410     2.4190   -14.8890 c          1 XM2       0.661100
      5 C13         43.3410     6.8570   -12.0650 c3         1 XM2      -0.108100
      6 C14         42.2320     0.0010   -14.6200 c3         1 XM2       0.038700
      7 C15         42.0900    -0.1030   -13.0990 c          1 XM2       0.649100
      8 C16         41.8330     7.1760   -14.0370 c3         1 XM2      -0.108100
      9 C17         40.4970    -0.5670   -11.2710 c3         1 XM2       0.102700
     10 C18         43.2100    -1.1560   -16.6310 ca         1 XM2      -0.088300
     11 C19         39.3770     0.4180   -10.9400 c3         1 XM2      -0.070400
     12 C2          44.9980     9.4070   -17.7290 ca         1 XM2      -0.137500
     13 C20         39.7710     1.8640   -11.1940 c5         1 XM2      -0.159700
     14 C21         40.9240     2.3930   -10.3400 c5         1 XM2      -0.094400
     15 C22         40.6450     3.8920   -10.2450 c5         1 XM2       0.100000
     16 C23         42.1530    -1.6230   -17.4100 ca         1 XM2      -0.122500
     17 C24         38.6490     2.8490   -10.9030 c          1 XM2       0.708500
     18 C25         42.2300    -1.6060   -18.7950 ca         1 XM2      -0.122000
     19 C26         43.3700    -1.1200   -19.4240 ca         1 XM2      -0.122000
     20 C28         44.4300    -0.6560   -18.6580 ca         1 XM2      -0.122000
     21 C29         44.3480    -0.6750   -17.2710 ca         1 XM2      -0.122500
     22 C3          44.4010     8.2660   -18.2500 ca         1 XM2      -0.098500
     23 C30         43.1630     4.4530   -13.8350 c3         1 XM2       0.138100
     24 C31         44.0430     3.6400   -12.8970 c3         1 XM2      -0.123100
     25 C32         40.1200    -2.0150   -10.9770 c3         1 XM2       0.128400
     26 C34         43.1050    -1.1490   -15.1310 c3         1 XM2      -0.038100
     27 C4          43.0270     8.0780   -18.1470 ca         1 XM2      -0.131300
     28 C5          42.2580     9.0450   -17.5030 ca         1 XM2      -0.098500
     29 C6          42.8520    10.1810   -16.9740 ca         1 XM2      -0.137500
     30 C7          42.3680     6.8560   -18.7210 c3         1 XM2       0.208700
     31 C9          42.7810     5.1890   -17.0890 c          1 XM2       0.765100
     32 N10         42.1830     4.4840   -16.1060 ns         1 XM2      -0.549900
     33 N13         42.8250     1.2700   -14.9700 ns         1 XM2      -0.543900
     34 N16         40.8730    -0.4540   -12.6670 ns         1 XM2      -0.561900
     35 N23         39.2040     3.9440   -10.3580 ns         1 XM2      -0.582900
     36 O26         37.4620     2.6840   -11.1380 o          1 XM2      -0.633500
     37 O29         43.9430     5.0980   -17.4170 o          1 XM2      -0.582000
     38 O33         40.9530     2.4690   -14.6040 o          1 XM2      -0.618100
     39 O34         39.8460    -2.1350    -9.6030 oh         1 XM2      -0.594800
     40 O38         43.0520     0.1030   -12.3740 o          1 XM2      -0.610100
     41 O8          41.8870     5.9800   -17.6970 os         1 XM2      -0.437900
     42 H1          44.6880    11.2530   -16.6780 ha         1 XM2       0.130000
     43 H2          45.2230     7.7990   -13.8250 hc         1 XM2       0.043033
     44 H3          44.1590     7.9880   -15.2290 hc         1 XM2       0.043033
     45 H4          43.8840     8.9480   -13.7810 hc         1 XM2       0.043033
     46 H5          43.8960     3.4630   -15.6070 h1         1 XM2       0.098700
     47 H6          44.3520     6.6370   -11.7180 hc         1 XM2       0.043033
     48 H7          43.0530     7.8270   -11.6580 hc         1 XM2       0.043033
     49 H8          42.6620     6.1190   -11.6330 hc         1 XM2       0.043033
     50 H9          41.2510    -0.0650   -15.0960 h1         1 XM2       0.079700
     51 H10         41.4970     8.1200   -13.6070 hc         1 XM2       0.043033
     52 H11         41.7690     7.2670   -15.1210 hc         1 XM2       0.043033
     53 H12         41.1260     6.4100   -13.7120 hc         1 XM2       0.043033
     54 H13         41.3830    -0.3200   -10.6840 h1         1 XM2       0.092700
     55 H14         38.4890     0.1650   -11.5280 hc         1 XM2       0.067200
     56 H15         39.1020     0.2930    -9.8900 hc         1 XM2       0.067200
     57 H16         46.0670     9.5450   -17.8210 ha         1 XM2       0.131500
     58 H17         40.0190     1.9950   -12.2550 hc         1 XM2       0.093700
     59 H18         40.8800     1.9470    -9.3430 hc         1 XM2       0.063200
     60 H19         41.9070     2.1790   -10.7560 hc         1 XM2       0.063200
     61 H20         40.9860     4.3290    -9.3070 h1         1 XM2       0.040700
     62 H21         41.2620    -2.0110   -16.9290 ha         1 XM2       0.126500
     63 H22         41.4010    -1.9760   -19.3840 ha         1 XM2       0.133000
     64 H23         43.4320    -1.1080   -20.5050 ha         1 XM2       0.133000
     65 H24         45.3230    -0.2770   -19.1370 ha         1 XM2       0.133000
     66 H25         45.1870    -0.3190   -16.6830 ha         1 XM2       0.126500
     67 H26         45.0070     7.5180   -18.7440 ha         1 XM2       0.138000
     68 H27         42.1810     4.6030   -13.3650 h1         1 XM2       0.047700
     69 H28         44.2250     4.1790   -11.9680 hc         1 XM2       0.049033
     70 H29         43.5830     2.6880   -12.6330 hc         1 XM2       0.049033
     71 H30         45.0090     3.4260   -13.3580 hc         1 XM2       0.049033
     72 H31         39.2530    -2.2960   -11.5920 h1         1 XM2       0.023200
     73 H32         40.9540    -2.6580   -11.2840 h1         1 XM2       0.023200
     74 H33         42.6690    -2.0860   -14.7800 hc         1 XM2       0.065700
     75 H34         44.0980    -1.0730   -14.6810 hc         1 XM2       0.065700
     76 H35         41.1860     8.9130   -17.4190 ha         1 XM2       0.138000
     77 H36         42.2450    10.9260   -16.4760 ha         1 XM2       0.131500
     78 H37         41.4740     7.1310   -19.2800 h1         1 XM2       0.066700
     79 H38         43.0410     6.3300   -19.3990 h1         1 XM2       0.066700
     80 H39         41.2240     4.6990   -15.8770 hn         1 XM2       0.336500
     81 H40         43.8180     1.3040   -15.1460 hn         1 XM2       0.332500
     82 H41         40.1350    -0.5340   -13.3510 hn         1 XM2       0.319500
     83 H42         39.6040    -3.0470    -9.4210 ho         1 XM2       0.410000
     84 H43         41.1240     4.4430   -11.0620 h1         1 XM2       0.040700
     85 H44         38.6740     4.7830   -10.1790 hn         1 XM2       0.325500
     86 O32         43.7670     5.6750   -14.1640 os         1 XM2      -0.412600
     87 C8          43.2660     6.8870   -13.5910 c3         1 XM2       0.170800
@<TRIPOS>BOND
     1     1    12 ar  
     2     1    29 ar  
     3     1    42 1   
     4     2    43 1   
     5     2    44 1   
     6     2    45 1   
     7     2    87 1   
     8     3     4 1   
     9     3    23 1   
    10     3    32 1   
    11     3    46 1   
    12     4    33 1   
    13     4    38 2   
    14     5    47 1   
    15     5    48 1   
    16     5    49 1   
    17     5    87 1   
    18     6     7 1   
    19     6    26 1   
    20     6    33 1   
    21     6    50 1   
    22     7    34 1   
    23     7    40 2   
    24     8    51 1   
    25     8    52 1   
    26     8    53 1   
    27     8    87 1   
    28     9    11 1   
    29     9    25 1   
    30     9    34 1   
    31     9    54 1   
    32    10    16 ar  
    33    10    21 ar  
    34    10    26 1   
    35    11    13 1   
    36    11    55 1   
    37    11    56 1   
    38    12    22 ar  
    39    12    57 1   
    40    13    14 1   
    41    13    17 1   
    42    13    58 1   
    43    14    15 1   
    44    14    59 1   
    45    14    60 1   
    46    15    35 1   
    47    15    61 1   
    48    15    84 1   
    49    16    18 ar  
    50    16    62 1   
    51    17    35 1   
    52    17    36 2   
    53    18    19 ar  
    54    18    63 1   
    55    19    20 ar  
    56    19    64 1   
    57    20    21 ar  
    58    20    65 1   
    59    21    66 1   
    60    22    27 ar  
    61    22    67 1   
    62    23    24 1   
    63    23    68 1   
    64    23    86 1   
    65    24    69 1   
    66    24    70 1   
    67    24    71 1   
    68    25    39 1   
    69    25    72 1   
    70    25    73 1   
    71    26    74 1   
    72    26    75 1   
    73    27    28 ar  
    74    27    30 1   
    75    28    29 ar  
    76    28    76 1   
    77    29    77 1   
    78    30    41 1   
    79    30    78 1   
    80    30    79 1   
    81    31    32 1   
    82    31    37 2   
    83    31    41 1   
    84    32    80 1   
    85    33    81 1   
    86    34    82 1   
    87    35    85 1   
    88    39    83 1   
    89    86    87 1   
@<TRIPOS>SUBSTRUCTURE
     1 XM2         1 TEMP              0 ****  ****    0 ROOT
