@<TRIPOS>MOLECULE
XM4
   22    22     1     0     0
SMALL
No Charge or Current Charge


@<TRIPOS>ATOM
      1 N1          16.8140    -7.9760    92.4820 ns         1 XM4      -0.166000
      2 C4          15.8530   -10.1200    93.3120 ca         1 XM4      -0.100000
      3 C5          15.8270   -11.5250    93.2850 ca         1 XM4      -0.088000
      4 C6          16.6940   -12.2260    92.4370 ca         1 XM4       0.107000
      5 C7          17.5900   -11.5270    91.6160 ca         1 XM4      -0.087000
      6 C8          17.6250   -10.1170    91.6350 ca         1 XM4      -0.103300
      7 C2          16.0420    -6.9960    93.0930 c          1 XM4       0.605100
      8 C3          16.7480    -9.4010    92.4860 ca         1 XM4      -0.029000
      9 Cl1         16.6600   -13.9850    92.4040 cl         1 XM4      -0.205000
     10 O1          15.0610    -7.2160    93.7930 o          1 XM4      -0.575100
     11 H4          17.5740    -7.6090    91.9250 hn         1 XM4       0.152000
     12 H5          15.1730    -9.6130    93.9890 ha         1 XM4       0.138000
     13 H6          15.1360   -12.0700    93.9230 ha         1 XM4       0.133000
     14 H7          18.2580   -12.0850    90.9650 ha         1 XM4       0.128000
     15 H2          15.8890    -4.8160    93.2980 hc         1 XM4       0.063700
     16 H3          17.5660    -5.4810    93.1060 hc         1 XM4       0.063700
     17 H1          16.5620    -5.4210    91.7270 hc         1 XM4       0.063700
     18 H9          18.0930    -8.7180    90.0330 hc         1 XM4       0.043367
     19 H10         19.3190    -8.7870    91.3150 hc         1 XM4       0.043367
     20 H8          19.2060   -10.0860    90.1240 hc         1 XM4       0.043367
     21 C9          18.6140    -9.3880    90.7280 c3         1 XM4      -0.046800
     22 C1          16.5140    -5.5730    92.8110 c3         1 XM4      -0.183100
@<TRIPOS>BOND
     1     1     7 1   
     2     1     8 1   
     3     1    11 1   
     4     2     3 ar  
     5     2     8 ar  
     6     2    12 1   
     7     3     4 ar  
     8     3    13 1   
     9     4     5 ar  
    10     4     9 1   
    11     5     6 ar  
    12     5    14 1   
    13     6     8 ar  
    14     6    21 1   
    15     7    10 2   
    16     7    22 1   
    17    15    22 1   
    18    16    22 1   
    19    17    22 1   
    20    18    21 1   
    21    19    21 1   
    22    20    21 1   
@<TRIPOS>SUBSTRUCTURE
     1 XM4         1 TEMP              0 ****  ****    0 ROOT
