@<TRIPOS>MOLECULE
XM4
   22    22     1     0     0
SMALL
abcg2


@<TRIPOS>ATOM
      1 N1          17.0330    -8.0050    92.6920 ns         1 XM4      -0.166000
      2 C4          16.0410   -10.0870    93.4720 ca         1 XM4      -0.100000
      3 C5          15.9080   -11.4630    93.3850 ca         1 XM4      -0.088000
      4 C6          16.6370   -12.1470    92.4270 ca         1 XM4       0.107000
      5 C7          17.4880   -11.4770    91.5660 ca         1 XM4      -0.087000
      6 C8          17.6170   -10.0940    91.6350 ca         1 XM4      -0.103300
      7 C2          16.0240    -7.1000    92.8250 c          1 XM4       0.605100
      8 C3          16.8810    -9.3980    92.6040 ca         1 XM4      -0.029000
      9 CL1         16.4880   -13.8720    92.3060 cl         1 XM4      -0.205000
     10 O1          14.8570    -7.4200    92.9510 o          1 XM4      -0.575100
     11 H4          17.9550    -7.6360    92.5130 hn         1 XM4       0.152000
     12 H5          15.4970    -9.5580    94.2410 ha         1 XM4       0.138000
     13 H6          15.2530   -11.9900    94.0650 ha         1 XM4       0.133000
     14 H7          18.0500   -12.0270    90.8220 ha         1 XM4       0.128000
     15 H2          15.6970    -5.0060    93.1270 hc         1 XM4       0.063700
     16 H3          17.3820    -5.5040    93.3610 hc         1 XM4       0.063700
     17 H1          16.7150    -5.3950    91.7370 hc         1 XM4       0.063700
     18 H9          17.9810    -8.6040    90.1240 hc         1 XM4       0.043367
     19 H10         19.3390    -8.8650    91.2080 hc         1 XM4       0.043367
     20 H8          18.9710   -10.0540    89.9700 hc         1 XM4       0.043367
     21 C9          18.5220    -9.3680    90.6860 c3         1 XM4      -0.046800
     22 C1          16.4820    -5.6660    92.7680 c3         1 XM4      -0.183100
@<TRIPOS>BOND
     1     1     7 1   
     2     1     8 1   
     3     1    11 1   
     4     2     3 ar  
     5     2     8 ar  
     6     2    12 1   
     7     3     4 ar  
     8     3    13 1   
     9     4     5 ar  
    10     4     9 1   
    11     5     6 ar  
    12     5    14 1   
    13     6     8 ar  
    14     6    21 1   
    15     7    10 2   
    16     7    22 1   
    17    15    22 1   
    18    16    22 1   
    19    17    22 1   
    20    18    21 1   
    21    19    21 1   
    22    20    21 1   
@<TRIPOS>SUBSTRUCTURE
     1 XM4         1 TEMP              0 ****  ****    0 ROOT
