@<TRIPOS>MOLECULE
XM6
   36    38     1     0     0
SMALL
No Charge or Current Charge


@<TRIPOS>ATOM
      1 N1          -8.1160   -52.9270   -27.4780 nb         1 XM6      -0.820000
      2 N3         -11.8840   -51.0780   -26.5300 nb         1 XM6      -0.721000
      3 C4         -10.3510   -54.4160   -26.6350 ca         1 XM6      -0.004000
      4 C5         -10.4970   -53.0440   -26.9550 cp         1 XM6      -0.281500
      5 C6         -11.8410   -52.3890   -26.8720 cp         1 XM6       0.440500
      6 C7          -8.2520   -50.1810   -28.1960 c3         1 XM6       0.289100
      7 C8          -8.1580   -50.2930   -29.7120 ca         1 XM6      -0.219300
      8 C10         -8.7650   -49.4250   -31.9120 ca         1 XM6      -0.198000
      9 C13         -7.3480   -51.2640   -30.3370 ca         1 XM6       0.210100
     10 C15        -14.3000   -51.1210   -26.6620 ca         1 XM6      -0.169000
     11 C17        -13.0340   -53.1100   -27.1330 ca         1 XM6      -0.160000
     12 C1          -9.3250   -52.3640   -27.3650 ca         1 XM6       0.673900
     13 C2          -8.0020   -54.2340   -27.1620 ca         1 XM6       0.422900
     14 C3          -9.0880   -55.0080   -26.7390 ca         1 XM6      -0.244000
     15 N2          -9.3280   -51.0360   -27.6880 nu         1 XM6      -0.931100
     16 C9          -8.8690   -49.3740   -30.5120 ca         1 XM6      -0.038000
     17 C11         -7.9460   -50.3880   -32.5170 ca         1 XM6       0.205000
     18 C12         -7.2370   -51.3060   -31.7330 ca         1 XM6      -0.203000
     19 F           -7.8440   -50.4330   -33.8630 f          1 XM6      -0.186000
     20 O           -6.6670   -52.1820   -29.6010 oh         1 XM6      -0.593100
     21 C14        -13.0840   -50.4630   -26.4230 ca         1 XM6       0.355900
     22 C16        -14.2810   -52.4740   -27.0300 ca         1 XM6      -0.061000
     23 H1         -11.1970   -55.0110   -26.2960 ha         1 XM6       0.115000
     24 H2          -7.2900   -50.4190   -27.7200 h1         1 XM6       0.057700
     25 H3          -8.4730   -49.1350   -27.9400 h1         1 XM6       0.057700
     26 H4          -9.3130   -48.7160   -32.5280 ha         1 XM6       0.132000
     27 H5         -15.2380   -50.5820   -26.5660 ha         1 XM6       0.128000
     28 H6         -12.9900   -54.1540   -27.4270 ha         1 XM6       0.125000
     29 H7          -7.0090   -54.6730   -27.2540 h4         1 XM6       0.023100
     30 H8          -8.9430   -56.0560   -26.4950 ha         1 XM6       0.130000
     31 H9         -10.2110   -50.5950   -27.4180 hn         1 XM6       0.539000
     32 H10         -9.4990   -48.6170   -30.0490 ha         1 XM6       0.108000
     33 H11         -6.6100   -52.0530   -32.2090 ha         1 XM6       0.144000
     34 H12         -7.2100   -52.3570   -28.7740 ho         1 XM6       0.528000
     35 H13        -13.0680   -49.4110   -26.1400 h4         1 XM6       0.020100
     36 H14        -15.2040   -53.0140   -27.2290 ha         1 XM6       0.122000
@<TRIPOS>BOND
     1     1    12 ar  
     2     1    13 ar  
     3     2     5 ar  
     4     2    21 ar  
     5     3     4 ar  
     6     3    14 ar  
     7     3    23 1   
     8     4     5 1   
     9     4    12 ar  
    10     5    11 ar  
    11     6     7 1   
    12     6    15 1   
    13     6    24 1   
    14     6    25 1   
    15     7     9 ar  
    16     7    16 ar  
    17     8    16 ar  
    18     8    17 ar  
    19     8    26 1   
    20     9    18 ar  
    21     9    20 1   
    22    10    21 ar  
    23    10    22 ar  
    24    10    27 1   
    25    11    22 ar  
    26    11    28 1   
    27    12    15 1   
    28    13    14 ar  
    29    13    29 1   
    30    14    30 1   
    31    15    31 1   
    32    16    32 1   
    33    17    18 ar  
    34    17    19 1   
    35    18    33 1   
    36    20    34 1   
    37    21    35 1   
    38    22    36 1   
@<TRIPOS>SUBSTRUCTURE
     1 XM6         1 TEMP              0 ****  ****    0 ROOT
