@<TRIPOS>MOLECULE
XM7
   39    41     1     0     0
SMALL
abcg2


@<TRIPOS>ATOM
      1 C2           4.3220     1.6810   -20.6410 ca         1 XM7       0.163900
      2 N1           3.9880     2.7980   -19.9840 nb         1 XM7      -0.307000
      3 C6           4.3580     2.9370   -18.6960 ca         1 XM7       0.435900
      4 C4           8.2480    -2.5100   -17.3270 c5         1 XM7       0.128300
      5 C3           8.9400    -1.4860   -18.2340 c5         1 XM7       0.093300
      6 C7           7.8890    -1.2620   -19.3240 c5         1 XM7       0.134300
      7 C1           6.5800    -1.3850   -18.5380 c5         1 XM7       0.310300
      8 C8           6.1740     0.5190   -16.8770 cc         1 XM7       0.437700
      9 C5           5.0830     1.8870   -18.0990 ca         1 XM7      -0.090600
     10 C9           5.3580     0.7840   -18.9060 ca         1 XM7       0.117500
     11 C22          6.0210    -1.9200   -13.4610 c3         1 XM7       0.203900
     12 N9           6.0610    -0.0860   -18.1080 na         1 XM7      -0.305300
     13 N7           5.6020     1.6990   -16.8310 nd         1 XM7      -0.572100
     14 N3           5.0020     0.6300   -20.1870 nb         1 XM7      -0.209000
     15 N6           4.0400     4.0690   -18.0450 nv         1 XM7      -1.069900
     16 O3          10.1440    -1.9460   -18.8170 oh         1 XM7      -0.729000
     17 O4           6.8470    -2.1710   -17.3970 os         1 XM7      -0.426000
     18 O2           7.9140    -2.3070   -20.2830 oh         1 XM7      -0.711000
     19 OP3          7.4100    -2.0720   -13.1500 os         1 XM7      -0.614400
     20 OP2          7.3630    -4.6390   -13.0710 o          1 XM7      -0.815000
     21 OP1          9.5820    -3.2750   -13.0940 o          1 XM7      -0.815000
     22 P            8.1650    -3.4640   -13.5240 p5         1 XM7       1.392800
     23 H4           3.9940     1.6300   -21.6740 h5         1 XM7       0.040100
     24 H1           8.3900    -3.5140   -17.7360 h1         1 XM7       0.089700
     25 H3           9.1000    -0.5510   -17.6900 h1         1 XM7       0.052700
     26 H2           7.9820    -0.2860   -19.8030 h1         1 XM7       0.067700
     27 H7           5.8100    -1.8510   -19.1530 h2         1 XM7       0.115700
     28 H5'          6.6750     0.0330   -16.0570 h5         1 XM7       0.093800
     29 H5           9.8040    -2.6230   -15.8820 h1         1 XM7       0.028700
     30 H8           8.5090    -1.4820   -15.4690 h1         1 XM7       0.028700
     31 H9           5.7220    -0.9310   -13.1170 h1         1 XM7       0.014367
     32 H10          5.8540    -1.9930   -14.5370 h1         1 XM7       0.014367
     33 H11          5.4240    -2.6790   -12.9510 h1         1 XM7       0.014367
     34 H61          3.4220     4.7320   -18.4840 hn         1 XM7       0.500000
     35 H62          4.1990     4.1430   -17.0550 hn         1 XM7       0.500000
     36 HO3         10.8730    -1.7940   -18.2050 ho         1 XM7       0.524000
     37 HO2          8.8410    -2.4850   -20.4960 ho         1 XM7       0.527000
     38 C10          8.7220    -2.4640   -15.8990 c3         1 XM7       0.222600
     39 O5           8.0650    -3.4870   -15.1520 os         1 XM7      -0.586400
@<TRIPOS>BOND
     1     1     2 ar  
     2     1    14 ar  
     3     1    23 1   
     4     2     3 ar  
     5     3     9 ar  
     6     3    15 1   
     7     4     5 1   
     8     4    17 1   
     9     4    24 1   
    10     4    38 1   
    11     5     6 1   
    12     5    16 1   
    13     5    25 1   
    14     6     7 1   
    15     6    18 1   
    16     6    26 1   
    17     7    12 1   
    18     7    17 1   
    19     7    27 1   
    20     8    12 1   
    21     8    13 2   
    22     8    28 1   
    23     9    10 ar  
    24     9    13 1   
    25    10    12 1   
    26    10    14 ar  
    27    11    19 1   
    28    11    31 1   
    29    11    32 1   
    30    11    33 1   
    31    15    34 1   
    32    15    35 1   
    33    16    36 1   
    34    18    37 1   
    35    19    22 1   
    36    20    22 1   
    37    21    22 1   
    38    22    39 1   
    39    29    38 1   
    40    30    38 1   
    41    38    39 1   
@<TRIPOS>SUBSTRUCTURE
     1 XM7         1 TEMP              0 ****  ****    0 ROOT
