@<TRIPOS>MOLECULE
XM7
   39    41     1     0     0
SMALL
No Charge or Current Charge


@<TRIPOS>ATOM
      1 C2           3.0910     0.5810   -18.4110 ca         1 XM7       0.163900
      2 N1           2.9590     1.9050   -18.1480 nb         1 XM7      -0.307000
      3 C6           4.1020     2.5950   -18.0100 ca         1 XM7       0.435900
      4 C4           8.4910    -2.4730   -17.3040 c5         1 XM7       0.128300
      5 C3           9.5070    -1.5210   -18.0030 c5         1 XM7       0.093300
      6 C7           8.7000    -1.1740   -19.2880 c5         1 XM7       0.134300
      7 C1           7.2340    -1.0660   -18.7130 c5         1 XM7       0.310300
      8 C8           7.4440     1.4340   -18.2110 cc         1 XM7       0.437700
      9 C5           5.3570     1.9610   -18.1300 ca         1 XM7      -0.090600
     10 C9           5.3780     0.6160   -18.3980 ca         1 XM7       0.117500
     11 C22          5.1300    -1.7580   -15.0370 c3         1 XM7       0.203900
     12 N9           6.6990     0.2730   -18.4560 na         1 XM7      -0.305300
     13 N7           6.6420     2.4990   -18.0090 nd         1 XM7      -0.572100
     14 N3           4.2500    -0.1070   -18.5460 nb         1 XM7      -0.209000
     15 N6           3.9710     3.9230   -17.7430 nv         1 XM7      -1.069900
     16 O3          10.7560    -2.1550   -18.3440 oh         1 XM7      -0.729000
     17 O4           7.2320    -1.7800   -17.4550 os         1 XM7      -0.426000
     18 O2           8.8750    -2.2460   -20.2260 oh         1 XM7      -0.711000
     19 OP3          6.3510    -1.6830   -14.2930 os         1 XM7      -0.614400
     20 OP2          6.0920    -4.0330   -13.3050 o          1 XM7      -0.815000
     21 OP1          8.1590    -2.7680   -12.8330 o          1 XM7      -0.815000
     22 P            7.0800    -3.0430   -13.8270 p5         1 XM7       1.392800
     23 H4           2.1700     0.0120   -18.5260 h5         1 XM7       0.040100
     24 H1           8.4230    -3.4310   -17.8390 h1         1 XM7       0.089700
     25 H3           9.6760    -0.6190   -17.3970 h1         1 XM7       0.052700
     26 H2           9.0360    -0.2280   -19.7330 h1         1 XM7       0.067700
     27 H7           6.5340    -1.5390   -19.4130 h2         1 XM7       0.115700
     28 H5'          8.5280     1.4420   -18.1870 h5         1 XM7       0.093800
     29 H5           9.7210    -3.3700   -15.7490 h1         1 XM7       0.028700
     30 H8           8.9670    -1.8310   -15.2860 h1         1 XM7       0.028700
     31 H9           4.9550    -0.8180   -15.5760 h1         1 XM7       0.014367
     32 H10          5.1610    -2.5710   -15.7740 h1         1 XM7       0.014367
     33 H11          4.2790    -1.9300   -14.3650 h1         1 XM7       0.014367
     34 H61          3.0780     4.2510   -17.3840 hn         1 XM7       0.500000
     35 H62          4.8020     4.4130   -17.4220 hn         1 XM7       0.500000
     36 HO3         11.3990    -1.9660   -17.6170 ho         1 XM7       0.524000
     37 HO2          9.7500    -2.6230   -19.9460 ho         1 XM7       0.527000
     38 C10          8.7970    -2.7810   -15.8120 c3         1 XM7       0.222600
     39 O5           7.7000    -3.5120   -15.2390 os         1 XM7      -0.586400
@<TRIPOS>BOND
     1     1     2 ar  
     2     1    14 ar  
     3     1    23 1   
     4     2     3 ar  
     5     3     9 ar  
     6     3    15 1   
     7     4     5 1   
     8     4    17 1   
     9     4    24 1   
    10     4    38 1   
    11     5     6 1   
    12     5    16 1   
    13     5    25 1   
    14     6     7 1   
    15     6    18 1   
    16     6    26 1   
    17     7    12 1   
    18     7    17 1   
    19     7    27 1   
    20     8    12 1   
    21     8    13 2   
    22     8    28 1   
    23     9    10 ar  
    24     9    13 1   
    25    10    12 1   
    26    10    14 ar  
    27    11    19 1   
    28    11    31 1   
    29    11    32 1   
    30    11    33 1   
    31    15    34 1   
    32    15    35 1   
    33    16    36 1   
    34    18    37 1   
    35    19    22 1   
    36    20    22 1   
    37    21    22 1   
    38    22    39 1   
    39    29    38 1   
    40    30    38 1   
    41    38    39 1   
@<TRIPOS>SUBSTRUCTURE
     1 XM7         1 TEMP              0 ****  ****    0 ROOT
