@<TRIPOS>MOLECULE
XM8
   62    65     1     0     0
SMALL
No Charge or Current Charge


@<TRIPOS>ATOM
      1 C11        -29.1400   -13.0220    15.9760 ca         1 XM8      -0.108500
      2 C12        -28.0310   -12.3800    15.3970 ca         1 XM8      -0.093500
      3 C13        -22.9440   -12.6230    13.4390 ca         1 XM8      -0.143300
      4 C17        -22.5250    -9.3330     9.6320 c          1 XM8       0.724200
      5 O19        -22.1990    -9.3350     8.4540 o          1 XM8      -0.699500
      6 C20        -21.9900   -11.8570    10.0520 cc         1 XM8      -0.152400
      7 C21        -21.4850   -12.1830     8.7220 ca         1 XM8       0.082200
      8 C25        -20.4760   -12.8960     6.1740 ca         1 XM8      -0.120300
      9 C26        -19.9660   -13.3060     4.7880 c3         1 XM8      -0.191100
     10 C28        -18.4690   -15.0020     3.0500 c3         1 XM8      -0.349100
     11 C01        -22.5720   -11.7650    15.8140 c3         1 XM8      -0.083100
     12 C02        -23.5300   -11.8250    14.6100 c3         1 XM8       0.225600
     13 C04        -25.8300   -12.4420    14.1200 c3         1 XM8       0.200900
     14 C05        -27.0300   -13.1330    14.7530 ca         1 XM8      -0.073300
     15 C06        -27.1500   -14.5350    14.6980 ca         1 XM8      -0.093500
     16 C07        -28.2580   -15.1770    15.2770 ca         1 XM8      -0.108500
     17 C08        -29.2610   -14.4250    15.9200 ca         1 XM8      -0.092300
     18 C09        -30.4680   -15.1190    16.5400 c3         1 XM8       0.199100
     19 C14        -22.6670   -12.0250    12.1930 ca         1 XM8      -0.056200
     20 C16        -22.4400   -10.5920    10.4540 cd         1 XM8      -0.055300
     21 C22        -20.2780   -11.6320     8.2570 ca         1 XM8      -0.063000
     22 C23        -19.7760   -11.9770     6.9920 ca         1 XM8       0.149000
     23 C31        -21.6780   -13.4550     6.6500 ca         1 XM8      -0.085000
     24 C32        -22.1750   -13.1050     7.9160 ca         1 XM8      -0.124000
     25 C33        -22.1550   -12.7530    11.1540 ca         1 XM8      -0.083800
     26 C34        -21.8710   -14.1200    11.2600 ca         1 XM8      -0.068000
     27 C35        -22.1380   -14.7490    12.4910 ca         1 XM8      -0.163000
     28 C36        -22.6710   -14.0080    13.5710 ca         1 XM8      -0.099000
     29 N10        -30.2550   -15.3970    17.9720 n8         1 XM8      -0.999200
     30 N15        -22.8470   -10.6990    11.8120 na         1 XM8      -0.197700
     31 O03        -24.7440   -12.4510    15.0650 os         1 XM8      -0.459000
     32 O18        -22.9460    -8.3280    10.1900 o          1 XM8      -0.699500
     33 O29        -19.7990   -15.9480     5.1240 o          1 XM8      -0.516500
     34 O30        -17.7240   -14.5520     5.5420 o          1 XM8      -0.516500
     35 S27        -18.9470   -14.8050     4.7690 s6         1 XM8       1.061000
     36 Cl24       -18.2630   -11.2400     6.4610 cl         1 XM8      -0.218000
     37 H111       -29.9060   -12.4300    16.4720 ha         1 XM8       0.113500
     38 H121       -27.9490   -11.2970    15.4500 ha         1 XM8       0.117000
     39 H261       -19.3590   -12.5150     4.3350 h1         1 XM8       0.092700
     40 H262       -20.8100   -13.5110     4.1190 h1         1 XM8       0.092700
     41 H281       -17.8490   -15.9020     2.9790 h1         1 XM8       0.095033
     42 H283       -19.3830   -15.1050     2.4570 h1         1 XM8       0.095033
     43 H282       -17.9030   -14.1110     2.7550 h1         1 XM8       0.095033
     44 H011       -23.0050   -11.1600    16.6180 hc         1 XM8       0.042033
     45 H012       -22.3670   -12.7680    16.2060 hc         1 XM8       0.042033
     46 H013       -21.6190   -11.3100    15.5180 hc         1 XM8       0.042033
     47 H021       -23.7390   -10.7940    14.2940 h1         1 XM8       0.033700
     48 H041       -25.5570   -12.9720    13.1980 h1         1 XM8       0.038700
     49 H042       -26.0980   -11.4120    13.8480 h1         1 XM8       0.038700
     50 H061       -26.3810   -15.1270    14.2060 ha         1 XM8       0.117000
     51 H071       -28.3380   -16.2610    15.2260 ha         1 XM8       0.113500
     52 H092       -31.3590   -14.4850    16.4310 h1         1 XM8       0.030700
     53 H091       -30.6580   -16.0680    16.0200 h1         1 XM8       0.030700
     54 H221       -19.7300   -10.9320     8.8810 ha         1 XM8       0.154000
     55 H311       -22.2290   -14.1670     6.0390 ha         1 XM8       0.104000
     56 H321       -23.1000   -13.5480     8.2760 ha         1 XM8       0.117000
     57 H341       -21.4600   -14.6760    10.4210 ha         1 XM8       0.111000
     58 H351       -21.9350   -15.8110    12.6110 ha         1 XM8       0.094000
     59 H361       -22.8770   -14.5130    14.5120 ha         1 XM8       0.104000
     60 H102       -31.0470   -15.9490    18.3230 hn         1 XM8       0.392500
     61 H101       -29.4540   -16.0320    18.0640 hn         1 XM8       0.392500
     62 H151       -23.2190    -9.9420    12.3750 hn         1 XM8       0.369000
@<TRIPOS>BOND
     1     1     2 ar  
     2     1    17 ar  
     3     1    37 1   
     4     2    14 ar  
     5     2    38 1   
     6     3    12 1   
     7     3    19 ar  
     8     3    28 ar  
     9     4     5 1   
    10     4    20 1   
    11     4    32 1   
    12     6     7 1   
    13     6    20 2   
    14     6    25 1   
    15     7    21 ar  
    16     7    24 ar  
    17     8     9 1   
    18     8    22 ar  
    19     8    23 ar  
    20     9    35 1   
    21     9    39 1   
    22     9    40 1   
    23    10    35 1   
    24    10    41 1   
    25    10    42 1   
    26    10    43 1   
    27    11    12 1   
    28    11    44 1   
    29    11    45 1   
    30    11    46 1   
    31    12    31 1   
    32    12    47 1   
    33    13    14 1   
    34    13    31 1   
    35    13    48 1   
    36    13    49 1   
    37    14    15 ar  
    38    15    16 ar  
    39    15    50 1   
    40    16    17 ar  
    41    16    51 1   
    42    17    18 1   
    43    18    29 1   
    44    18    52 1   
    45    18    53 1   
    46    19    25 ar  
    47    19    30 1   
    48    20    30 1   
    49    21    22 ar  
    50    21    54 1   
    51    22    36 1   
    52    23    24 ar  
    53    23    55 1   
    54    24    56 1   
    55    25    26 ar  
    56    26    27 ar  
    57    26    57 1   
    58    27    28 ar  
    59    27    58 1   
    60    28    59 1   
    61    29    60 1   
    62    29    61 1   
    63    30    62 1   
    64    33    35 2   
    65    34    35 2   
@<TRIPOS>SUBSTRUCTURE
     1 XM8         1 TEMP              0 ****  ****    0 ROOT
