@<TRIPOS>MOLECULE
XM8
   62    65     1     0     0
SMALL
abcg2


@<TRIPOS>ATOM
      1 C11        -29.0730   -13.3540    16.1660 ca         1 XM8      -0.108500
      2 C12        -28.0770   -12.5460    15.6290 ca         1 XM8      -0.093500
      3 C13        -23.1620   -12.5810    13.2990 ca         1 XM8      -0.143300
      4 C17        -21.8940    -9.0960    10.0270 c          1 XM8       0.724200
      5 O19        -21.5750    -8.9720     8.8340 o          1 XM8      -0.699500
      6 C20        -21.8530   -11.7550    10.0090 cc         1 XM8      -0.152400
      7 C21        -21.3650   -12.1230     8.6780 ca         1 XM8       0.082200
      8 C25        -20.4510   -12.9040     6.1150 ca         1 XM8      -0.120300
      9 C26        -20.0160   -13.3370     4.7550 c3         1 XM8      -0.191100
     10 C28        -18.6480   -15.2250     3.1850 c3         1 XM8      -0.349100
     11 C01        -22.5620   -11.6720    15.5560 c3         1 XM8      -0.083100
     12 C02        -23.6420   -11.7800    14.4920 c3         1 XM8       0.225600
     13 C04        -25.9510   -12.2240    14.3180 c3         1 XM8       0.200900
     14 C05        -27.0290   -13.0910    14.8990 ca         1 XM8      -0.073300
     15 C06        -26.9930   -14.4730    14.7240 ca         1 XM8      -0.093500
     16 C07        -27.9800   -15.2790    15.2650 ca         1 XM8      -0.108500
     17 C08        -29.0390   -14.7330    15.9900 ca         1 XM8      -0.092300
     18 C09        -30.1220   -15.6360    16.5270 c3         1 XM8       0.199100
     19 C14        -22.6830   -11.9720    12.1350 ca         1 XM8      -0.056200
     20 C16        -22.0460   -10.5050    10.5610 cd         1 XM8      -0.055300
     21 C22        -20.2180   -11.5560     8.1230 ca         1 XM8      -0.063000
     22 C23        -19.7780   -11.9440     6.8700 ca         1 XM8       0.149000
     23 C31        -21.5860   -13.4740     6.6840 ca         1 XM8      -0.085000
     24 C32        -22.0400   -13.0920     7.9340 ca         1 XM8      -0.124000
     25 C33        -22.2490   -12.7080    11.0090 ca         1 XM8      -0.083800
     26 C34        -22.2590   -14.1070    11.0680 ca         1 XM8      -0.068000
     27 C35        -22.7130   -14.7170    12.2190 ca         1 XM8      -0.163000
     28 C36        -23.1630   -13.9640    13.3140 ca         1 XM8      -0.099000
     29 N10        -30.8190   -15.0630    17.6630 n8         1 XM8      -0.999200
     30 N15        -22.5370   -10.6550    11.8260 na         1 XM8      -0.197700
     31 O03        -24.7740   -12.3770    15.0860 os         1 XM8      -0.459000
     32 O18        -22.1250    -8.1970    10.8600 o          1 XM8      -0.699500
     33 O29        -19.6180   -15.8400     5.5620 o          1 XM8      -0.516500
     34 O30        -17.6310   -14.3180     5.4470 o          1 XM8      -0.516500
     35 S27        -18.9050   -14.7590     4.8840 s6         1 XM8       1.061000
     36 CL24       -18.3630   -11.1660     6.2330 cl         1 XM8      -0.218000
     37 H111       -29.8810   -12.9060    16.7280 ha         1 XM8       0.113500
     38 H121       -28.1220   -11.4740    15.7800 ha         1 XM8       0.117000
     39 H261       -19.4840   -12.5650     4.2010 h1         1 XM8       0.092700
     40 H262       -20.8670   -13.6700     4.1590 h1         1 XM8       0.092700
     41 H281       -17.9810   -16.0860     3.1830 h1         1 XM8       0.095033
     42 H283       -19.6010   -15.4920     2.7330 h1         1 XM8       0.095033
     43 H282       -18.1890   -14.3980     2.6470 h1         1 XM8       0.095033
     44 H011       -22.9020   -11.0640    16.3950 hc         1 XM8       0.042033
     45 H012       -22.2820   -12.6580    15.9290 hc         1 XM8       0.042033
     46 H013       -21.6700   -11.2040    15.1390 hc         1 XM8       0.042033
     47 H021       -23.9010   -10.7630    14.1610 h1         1 XM8       0.033700
     48 H041       -25.7720   -12.5130    13.2750 h1         1 XM8       0.038700
     49 H042       -26.2700   -11.1730    14.3110 h1         1 XM8       0.038700
     50 H061       -26.1860   -14.9240    14.1570 ha         1 XM8       0.117000
     51 H071       -27.9300   -16.3530    15.1210 ha         1 XM8       0.113500
     52 H092       -30.8580   -15.7990    15.7330 h1         1 XM8       0.030700
     53 H091       -29.6810   -16.6230    16.7260 h1         1 XM8       0.030700
     54 H221       -19.6640   -10.8120     8.6770 ha         1 XM8       0.154000
     55 H311       -22.1400   -14.2130     6.1200 ha         1 XM8       0.104000
     56 H321       -22.9450   -13.5390     8.3240 ha         1 XM8       0.117000
     57 H341       -21.9180   -14.7030    10.2310 ha         1 XM8       0.111000
     58 H351       -22.7300   -15.7980    12.2820 ha         1 XM8       0.094000
     59 H361       -23.5290   -14.4850    14.1900 ha         1 XM8       0.104000
     60 H102       -31.6100   -15.6480    17.8990 hn         1 XM8       0.392500
     61 H101       -30.2130   -15.0720    18.4740 hn         1 XM8       0.392500
     62 H151       -22.7620    -9.8610    12.4030 hn         1 XM8       0.369000
@<TRIPOS>BOND
     1     1     2 ar  
     2     1    17 ar  
     3     1    37 1   
     4     2    14 ar  
     5     2    38 1   
     6     3    12 1   
     7     3    19 ar  
     8     3    28 ar  
     9     4     5 1   
    10     4    20 1   
    11     4    32 1   
    12     6     7 1   
    13     6    20 2   
    14     6    25 1   
    15     7    21 ar  
    16     7    24 ar  
    17     8     9 1   
    18     8    22 ar  
    19     8    23 ar  
    20     9    35 1   
    21     9    39 1   
    22     9    40 1   
    23    10    35 1   
    24    10    41 1   
    25    10    42 1   
    26    10    43 1   
    27    11    12 1   
    28    11    44 1   
    29    11    45 1   
    30    11    46 1   
    31    12    31 1   
    32    12    47 1   
    33    13    14 1   
    34    13    31 1   
    35    13    48 1   
    36    13    49 1   
    37    14    15 ar  
    38    15    16 ar  
    39    15    50 1   
    40    16    17 ar  
    41    16    51 1   
    42    17    18 1   
    43    18    29 1   
    44    18    52 1   
    45    18    53 1   
    46    19    25 ar  
    47    19    30 1   
    48    20    30 1   
    49    21    22 ar  
    50    21    54 1   
    51    22    36 1   
    52    23    24 ar  
    53    23    55 1   
    54    24    56 1   
    55    25    26 ar  
    56    26    27 ar  
    57    26    57 1   
    58    27    28 ar  
    59    27    58 1   
    60    28    59 1   
    61    29    60 1   
    62    29    61 1   
    63    30    62 1   
    64    33    35 2   
    65    34    35 2   
@<TRIPOS>SUBSTRUCTURE
     1 XM8         1 TEMP              0 ****  ****    0 ROOT
