@<TRIPOS>MOLECULE
XMA
   67    72     1     0     0
SMALL
No Charge or Current Charge


@<TRIPOS>ATOM
      1 C1           0.2500     0.3010     3.7710 ca         1 XMA       0.024000
      2 C2           1.5080    -0.1470     3.3180 ca         1 XMA      -0.309500
      3 C3          -0.5610    -2.0030     3.7830 ca         1 XMA       0.010000
      4 C4           0.6960    -2.4450     3.3310 ca         1 XMA      -0.107000
      5 C5           1.7280    -1.5220     3.0980 ca         1 XMA      -0.038000
      6 C6          -0.7840    -0.6250     4.0040 ca         1 XMA      -0.070000
      7 C8          -2.0440    -0.1830     4.4540 ca         1 XMA      -0.074000
      8 C9          -1.5970    -2.9270     4.0130 ca         1 XMA      -0.106000
      9 C10         -3.0750    -1.1120     4.6820 ca         1 XMA      -0.106000
     10 C11         -2.8500    -2.4800     4.4610 ca         1 XMA       0.142000
     11 S12          2.8210     1.0320     2.9650 sy         1 XMA       1.168600
     12 O13          4.0690     0.4700     3.4920 o          1 XMA      -0.524500
     13 O14          2.3850     2.3990     3.2680 o          1 XMA      -0.524500
     14 C15          4.1270     1.6800    -0.9120 c          1 XMA       0.580000
     15 O16          5.0770     2.1680    -1.5110 o          1 XMA      -0.545000
     16 C17          4.0860     1.6440     0.6460 c6         1 XMA       0.109800
     17 N18          2.9410     0.9040     1.2750 n3         1 XMA      -0.729500
     18 C19          1.8490     0.5860    -0.9550 c5         1 XMA       0.354400
     19 C20          1.9250    -0.9830    -0.9180 c3         1 XMA       0.152600
     20 O21          0.5990    -1.5470    -0.8000 os         1 XMA      -0.443000
     21 C22          0.5680    -2.9780    -0.6880 c3         1 XMA       0.147900
     22 C23          1.6750     1.1030     0.5060 c6         1 XMA       0.180800
     23 N24          3.0170     1.1760    -1.6140 n          1 XMA      -0.429800
     24 C25          2.7530     1.4590    -3.0400 c5         1 XMA       0.070000
     25 C26         -4.9350     1.1350    -5.6480 ca         1 XMA       0.364900
     26 N27         -1.3720     0.8550    -4.6120 nh         1 XMA      -0.808400
     27 C28         -2.5900     0.6810    -5.3020 ca         1 XMA       0.366000
     28 C29         -3.7590     1.3510    -4.9210 ca         1 XMA      -0.243000
     29 C30         -0.6700    -0.3270    -4.0440 c6         1 XMA       0.219800
     30 C31         -2.6550    -0.1790    -6.4020 ca         1 XMA      -0.243000
     31 C32         -1.0840     2.1170    -3.8760 c6         1 XMA       0.219800
     32 C33          1.2080     1.1880    -3.1530 c5         1 XMA       0.162000
     33 O34          0.7560     1.0570    -1.7760 os         1 XMA      -0.451000
     34 C35          0.8540    -0.0790    -3.9890 c6         1 XMA      -0.087400
     35 N36         -5.0000     0.3060    -6.7110 nb         1 XMA      -0.694000
     36 C37         -3.8710    -0.3370    -7.0760 ca         1 XMA       0.364900
     37 C38          0.4390     2.3760    -3.7940 c6         1 XMA      -0.087400
     38 H1           0.0690     1.3630     3.9360 ha         1 XMA       0.140000
     39 H4           0.8740    -3.5030     3.1560 ha         1 XMA       0.124000
     40 H5           2.6930    -1.8740     2.7360 ha         1 XMA       0.136000
     41 H8          -2.2270     0.8750     4.6270 ha         1 XMA       0.126000
     42 H9          -1.4340    -3.9880     3.8450 ha         1 XMA       0.136000
     43 H10         -4.0480    -0.7720     5.0290 ha         1 XMA       0.136000
     44 H171         4.0700     2.6990     0.9540 h1         1 XMA       0.087700
     45 H172         5.0460     1.2210     0.9740 h1         1 XMA       0.087700
     46 H201         2.4250    -1.3490    -1.8220 h1         1 XMA       0.040200
     47 H202         2.5500    -1.2950    -0.0720 h1         1 XMA       0.040200
     48 H221        -0.4680    -3.3310    -0.6040 h1         1 XMA       0.032700
     49 H222         1.0200    -3.4490    -1.5710 h1         1 XMA       0.032700
     50 H223         1.1150    -3.3110     0.2040 h1         1 XMA       0.032700
     51 H231         1.3960     2.1670     0.4850 h1         1 XMA       0.081700
     52 H232         0.8320     0.5600     0.9560 h1         1 XMA       0.081700
     53 H251         3.0030     2.4980    -3.2920 h1         1 XMA       0.077700
     54 H252         3.3370     0.8010    -3.6970 h1         1 XMA       0.077700
     55 H29         -3.7750     2.0220    -4.0700 ha         1 XMA       0.118000
     56 H301        -1.0430    -0.5400    -3.0310 h1         1 XMA       0.050950
     57 H302        -0.8570    -1.2250    -4.6520 h1         1 XMA       0.050950
     58 H31         -1.7750    -0.7110    -6.7450 ha         1 XMA       0.118000
     59 H321        -1.5040     2.0680    -2.8600 h1         1 XMA       0.050950
     60 H322        -1.5520     2.9730    -4.3850 h1         1 XMA       0.050950
     61 H351         1.2290     0.0470    -5.0140 hc         1 XMA       0.059950
     62 H352         1.3530    -0.9730    -3.6050 hc         1 XMA       0.059950
     63 H37         -3.9450    -0.9990    -7.9380 h4         1 XMA       0.012600
     64 H381         0.6200     3.2910    -3.2140 hc         1 XMA       0.059950
     65 H382         0.8290     2.5670    -4.8020 hc         1 XMA       0.059950
     66 Cl7         -4.1420    -3.6390     4.7460 cl         1 XMA      -0.188000
     67 H26         -5.8590     1.6410    -5.3700 h4         1 XMA       0.012600
@<TRIPOS>BOND
     1     1     2 ar  
     2     1     6 ar  
     3     1    38 1   
     4     2     5 ar  
     5     2    11 1   
     6     3     4 ar  
     7     3     6 ar  
     8     3     8 ar  
     9     4     5 ar  
    10     4    39 1   
    11     5    40 1   
    12     6     7 ar  
    13     7     9 ar  
    14     7    41 1   
    15     8    10 ar  
    16     8    42 1   
    17     9    10 ar  
    18     9    43 1   
    19    10    66 1   
    20    11    12 2   
    21    11    13 2   
    22    11    17 1   
    23    14    15 2   
    24    14    16 1   
    25    14    23 1   
    26    16    17 1   
    27    16    44 1   
    28    16    45 1   
    29    17    22 1   
    30    18    19 1   
    31    18    22 1   
    32    18    23 1   
    33    18    33 1   
    34    19    20 1   
    35    19    46 1   
    36    19    47 1   
    37    20    21 1   
    38    21    48 1   
    39    21    49 1   
    40    21    50 1   
    41    22    51 1   
    42    22    52 1   
    43    23    24 1   
    44    24    32 1   
    45    24    53 1   
    46    24    54 1   
    47    25    28 ar  
    48    25    35 ar  
    49    25    67 1   
    50    26    27 1   
    51    26    29 1   
    52    26    31 1   
    53    27    28 ar  
    54    27    30 ar  
    55    28    55 1   
    56    29    34 1   
    57    29    56 1   
    58    29    57 1   
    59    30    36 ar  
    60    30    58 1   
    61    31    37 1   
    62    31    59 1   
    63    31    60 1   
    64    32    33 1   
    65    32    34 1   
    66    32    37 1   
    67    34    61 1   
    68    34    62 1   
    69    35    36 ar  
    70    36    63 1   
    71    37    64 1   
    72    37    65 1   
@<TRIPOS>SUBSTRUCTURE
     1 XMA         1 TEMP              0 ****  ****    0 ROOT
