@<TRIPOS>MOLECULE
XMA
   67    72     1     0     0
SMALL
abcg2


@<TRIPOS>ATOM
      1 C1           0.8030     0.1110     4.0910 ca         1 XMA       0.024000
      2 C2           0.9060    -0.8350     3.1070 ca         1 XMA      -0.309500
      3 C3          -1.5630    -0.4450     4.3310 ca         1 XMA       0.010000
      4 C4          -1.4110    -1.4140     3.3110 ca         1 XMA      -0.107000
      5 C5          -0.2040    -1.6130     2.7070 ca         1 XMA      -0.038000
      6 C6          -0.4400     0.3260     4.7240 ca         1 XMA      -0.070000
      7 C8          -0.5910     1.2900     5.7470 ca         1 XMA      -0.074000
      8 C9          -2.8060    -0.2350     4.9680 ca         1 XMA      -0.106000
      9 C10         -1.8000     1.4830     6.3530 ca         1 XMA      -0.106000
     10 C11         -2.9060     0.7070     5.9510 ca         1 XMA       0.142000
     11 S12          2.4480    -1.0570     2.2710 sy         1 XMA       1.168600
     12 O13          2.5320    -2.4390     1.8370 o          1 XMA      -0.524500
     13 O14          3.5030    -0.4770     3.0820 o          1 XMA      -0.524500
     14 C15          2.4340     2.0720    -0.2440 c          1 XMA       0.580000
     15 O16          2.5310     3.2860    -0.2230 o          1 XMA      -0.545000
     16 C17          2.4060     1.3110     1.0690 c6         1 XMA       0.109800
     17 N18          2.3480    -0.1310     0.9010 n3         1 XMA      -0.729500
     18 C19          2.0900    -0.0700    -1.4630 c5         1 XMA       0.354400
     19 C20          3.4000    -0.7910    -1.7750 c3         1 XMA       0.152600
     20 O21          3.1260    -2.1480    -1.9630 os         1 XMA      -0.443000
     21 C22          4.2880    -2.9120    -2.1690 c3         1 XMA       0.147900
     22 C23          1.4620    -0.5610    -0.1660 c6         1 XMA       0.180800
     23 N24          2.3320     1.3600    -1.3810 n          1 XMA      -0.429800
     24 C25          2.0570     1.9430    -2.6770 c5         1 XMA       0.070000
     25 C26         -4.9900    -0.3640    -5.5030 ca         1 XMA       0.364900
     26 N27         -1.4750     0.3500    -4.6660 nh         1 XMA      -0.808400
     27 C28         -2.6080     0.0090    -5.3540 ca         1 XMA       0.366000
     28 C29         -3.8750    -0.0660    -4.7430 ca         1 XMA      -0.243000
     29 C30         -0.1720    -0.1120    -5.1260 c6         1 XMA       0.219800
     30 C31         -2.6000    -0.2690    -6.7350 ca         1 XMA      -0.243000
     31 C32         -1.5500     0.6020    -3.2360 c6         1 XMA       0.219800
     32 C33          0.9380     1.0310    -3.1800 c5         1 XMA       0.162000
     33 O34          1.1960    -0.2210    -2.5290 os         1 XMA      -0.451000
     34 C35          0.9520     0.8120    -4.6790 c6         1 XMA      -0.087400
     35 N36         -4.9790    -0.6080    -6.8090 nb         1 XMA      -0.694000
     36 C37         -3.7810    -0.5550    -7.3870 ca         1 XMA       0.364900
     37 C38         -0.4400     1.5340    -2.7750 c6         1 XMA      -0.087400
     38 H1           1.6590     0.6940     4.4050 ha         1 XMA       0.140000
     39 H4          -2.2650    -2.0110     3.0160 ha         1 XMA       0.124000
     40 H5          -0.1030    -2.3680     1.9400 ha         1 XMA       0.136000
     41 H8           0.2630     1.8820     6.0500 ha         1 XMA       0.126000
     42 H9          -3.6640    -0.8250     4.6730 ha         1 XMA       0.136000
     43 H10         -1.9120     2.2210     7.1360 ha         1 XMA       0.136000
     44 H171         1.5380     1.6980     1.6190 h1         1 XMA       0.087700
     45 H172         3.3020     1.5890     1.6210 h1         1 XMA       0.087700
     46 H201         3.8510    -0.3450    -2.6740 h1         1 XMA       0.040200
     47 H202         4.1050    -0.6330    -0.9480 h1         1 XMA       0.040200
     48 H221         3.9890    -3.9530    -2.2770 h1         1 XMA       0.032700
     49 H222         4.8230    -2.6080    -3.0760 h1         1 XMA       0.032700
     50 H223         4.9810    -2.8340    -1.3240 h1         1 XMA       0.032700
     51 H231         0.4550    -0.1410    -0.0530 h1         1 XMA       0.081700
     52 H232         1.3820    -1.6450    -0.1890 h1         1 XMA       0.081700
     53 H251         1.7500     2.9810    -2.5820 h1         1 XMA       0.077700
     54 H252         2.9380     1.9030    -3.3250 h1         1 XMA       0.077700
     55 H29         -4.0140     0.0850    -3.6840 ha         1 XMA       0.118000
     56 H301         0.0150    -1.1290    -4.7610 h1         1 XMA       0.050950
     57 H302        -0.1500    -0.1570    -6.2110 h1         1 XMA       0.050950
     58 H31         -1.6950    -0.2500    -7.3230 ha         1 XMA       0.118000
     59 H321        -1.5230    -0.3350    -2.6670 h1         1 XMA       0.050950
     60 H322        -2.4940     1.0890    -3.0030 h1         1 XMA       0.050950
     61 H351         0.8520     1.7790    -5.1780 hc         1 XMA       0.059950
     62 H352         1.9070     0.3830    -4.9910 hc         1 XMA       0.059950
     63 H37         -3.7510    -0.7530    -8.4540 h4         1 XMA       0.012600
     64 H381        -0.5110     1.6520    -1.6910 hc         1 XMA       0.059950
     65 H382        -0.5970     2.5220    -3.2150 hc         1 XMA       0.059950
     66 CL7         -4.4230     0.9700     6.7390 cl         1 XMA      -0.188000
     67 H26         -5.9550    -0.4160    -5.0100 h4         1 XMA       0.012600
@<TRIPOS>BOND
     1     1     2 ar  
     2     1     6 ar  
     3     1    38 1   
     4     2     5 ar  
     5     2    11 1   
     6     3     4 ar  
     7     3     6 ar  
     8     3     8 ar  
     9     4     5 ar  
    10     4    39 1   
    11     5    40 1   
    12     6     7 ar  
    13     7     9 ar  
    14     7    41 1   
    15     8    10 ar  
    16     8    42 1   
    17     9    10 ar  
    18     9    43 1   
    19    10    66 1   
    20    11    12 2   
    21    11    13 2   
    22    11    17 1   
    23    14    15 2   
    24    14    16 1   
    25    14    23 1   
    26    16    17 1   
    27    16    44 1   
    28    16    45 1   
    29    17    22 1   
    30    18    19 1   
    31    18    22 1   
    32    18    23 1   
    33    18    33 1   
    34    19    20 1   
    35    19    46 1   
    36    19    47 1   
    37    20    21 1   
    38    21    48 1   
    39    21    49 1   
    40    21    50 1   
    41    22    51 1   
    42    22    52 1   
    43    23    24 1   
    44    24    32 1   
    45    24    53 1   
    46    24    54 1   
    47    25    28 ar  
    48    25    35 ar  
    49    25    67 1   
    50    26    27 1   
    51    26    29 1   
    52    26    31 1   
    53    27    28 ar  
    54    27    30 ar  
    55    28    55 1   
    56    29    34 1   
    57    29    56 1   
    58    29    57 1   
    59    30    36 ar  
    60    30    58 1   
    61    31    37 1   
    62    31    59 1   
    63    31    60 1   
    64    32    33 1   
    65    32    34 1   
    66    32    37 1   
    67    34    61 1   
    68    34    62 1   
    69    35    36 ar  
    70    36    63 1   
    71    37    64 1   
    72    37    65 1   
@<TRIPOS>SUBSTRUCTURE
     1 XMA         1 TEMP              0 ****  ****    0 ROOT
