@<TRIPOS>MOLECULE
XMB
   75    79     1     0     0
SMALL
No Charge or Current Charge


@<TRIPOS>ATOM
      1 C1          -0.2160    -1.9120    -3.1270 c          1 XMB       0.575100
      2 O2           0.9440    -2.1780    -3.4250 o          1 XMB      -0.585100
      3 N3          -1.2640    -2.8090    -3.4680 n          1 XMB      -0.415800
      4 C4          -0.9940    -4.1010    -4.1460 c6         1 XMB       0.111000
      5 C5          -1.1280    -5.2620    -3.1410 c6         1 XMB      -0.329400
      6 S6          -2.7890    -5.3550    -2.4370 s6         1 XMB       1.082000
      7 O7          -2.7530    -6.2170    -1.2500 o          1 XMB      -0.509000
      8 O8          -3.7430    -5.6330    -3.5180 o          1 XMB      -0.509000
      9 C9          -2.6810    -2.6550    -3.0480 c6         1 XMB       0.111000
     10 C10         -2.9970    -3.6400    -1.9080 c6         1 XMB      -0.329400
     11 C11         -0.8400     3.1730     0.2350 ca         1 XMB       0.026000
     12 C12         -1.7200     2.1200    -0.0890 ca         1 XMB      -0.303500
     13 C13         -0.4450     2.1690     2.4260 ca         1 XMB       0.003000
     14 C14         -1.3320     1.1260     2.1040 ca         1 XMB      -0.119000
     15 C15         -1.9650     1.0960     0.8510 ca         1 XMB      -0.041000
     16 C16         -0.1970     3.1950     1.4880 ca         1 XMB      -0.070000
     17 C17          0.7040     4.2310     1.8050 ca         1 XMB      -0.077000
     18 C18          0.2020     2.1880     3.6750 ca         1 XMB      -0.108000
     19 C19          1.3540     4.2410     3.0520 ca         1 XMB      -0.109000
     20 C20          1.1010     3.2210     3.9840 ca         1 XMB       0.139000
     21 Cl21         1.9330     3.2240     5.5330 cl         1 XMB      -0.181000
     22 S22         -2.5120     2.0910    -1.6980 sy         1 XMB       1.139600
     23 O23         -3.4090     0.9350    -1.7810 o          1 XMB      -0.527500
     24 N24         -1.1860     1.7660    -2.6610 n7         1 XMB      -0.839300
     25 C25         -0.5490    -0.5750    -2.3770 c3         1 XMB       0.063500
     26 C26         -1.1070     0.4770    -3.3710 c3         1 XMB       0.198800
     27 N27          0.6100     0.0420    -1.6270 n7         1 XMB      -0.881400
     28 O28         -2.9380     3.4430    -2.0670 o          1 XMB      -0.527500
     29 C29          0.9740    -0.6130    -0.3570 c3         1 XMB       0.165800
     30 C30          8.1550     0.6510     2.7840 ca         1 XMB       0.364900
     31 N31          4.5520     0.6110     1.9200 nh         1 XMB      -0.805400
     32 C32          5.7560     0.8410     2.6180 ca         1 XMB       0.363000
     33 C33          6.9720     0.4150     2.0770 ca         1 XMB      -0.241500
     34 C34          3.2640     0.4810     2.6560 c6         1 XMB       0.215300
     35 C35          5.7800     1.4950     3.8560 ca         1 XMB      -0.241500
     36 C36          4.3950     1.1600     0.5440 c6         1 XMB       0.215300
     37 C37          2.0190     0.2170     0.4390 c6         1 XMB      -0.058700
     38 C38          2.2440    -0.3640     1.8580 c6         1 XMB      -0.085900
     39 N39          8.1830     1.2820     3.9780 nb         1 XMB      -0.692000
     40 C40          7.0070     1.6950     4.4980 ca         1 XMB       0.364900
     41 C41          3.3870     0.3290    -0.2860 c6         1 XMB      -0.085900
     42 H41         -1.7020    -4.2360    -4.9790 h1         1 XMB       0.081450
     43 H42          0.0130    -4.1090    -4.5880 h1         1 XMB       0.081450
     44 H51         -0.9440    -6.2320    -3.6190 h1         1 XMB       0.113200
     45 H52         -0.4430    -5.1330    -2.2950 h1         1 XMB       0.113200
     46 H91         -2.9100    -1.6310    -2.7260 h1         1 XMB       0.081450
     47 H92         -3.3390    -2.8550    -3.9080 h1         1 XMB       0.081450
     48 H101        -4.0380    -3.5490    -1.5750 h1         1 XMB       0.113200
     49 H102        -2.3220    -3.4950    -1.0560 h1         1 XMB       0.113200
     50 H14         -1.5250     0.3310     2.8200 ha         1 XMB       0.121000
     51 H15         -2.6420     0.2750     0.6170 ha         1 XMB       0.143000
     52 H17          0.9050     5.0240     1.0880 ha         1 XMB       0.125000
     53 H18          0.0200     1.4010     4.4010 ha         1 XMB       0.137000
     54 H19          2.0540     5.0360     3.2950 ha         1 XMB       0.135000
     55 H24         -0.4640     1.6540    -1.9380 hn         1 XMB       0.496000
     56 H25         -1.3380    -0.8050    -1.6510 h1         1 XMB       0.077700
     57 H261        -2.0670     0.1650    -3.8070 h1         1 XMB       0.081200
     58 H262        -0.3910     0.5620    -4.2010 h1         1 XMB       0.081200
     59 H27          1.4380     0.0080    -2.2390 hn         1 XMB       0.442000
     60 H291         0.0820    -0.7250     0.2730 h1         1 XMB       0.040700
     61 H292         1.3770    -1.6190    -0.5380 h1         1 XMB       0.040700
     62 H30          9.1150     0.3250     2.3860 h4         1 XMB       0.013600
     63 H33          7.0050    -0.1050     1.1260 ha         1 XMB       0.118000
     64 H341         2.8420     1.4780     2.8420 h1         1 XMB       0.043450
     65 H342         3.4260     0.0010     3.6320 h1         1 XMB       0.043450
     66 H35          4.8710     1.8610     4.3210 ha         1 XMB       0.118000
     67 H361         4.0440     2.2020     0.5980 h1         1 XMB       0.043450
     68 H362         5.3590     1.1710     0.0140 h1         1 XMB       0.043450
     69 H37          1.5960     1.2250     0.5430 hc         1 XMB       0.050700
     70 H381         1.2940    -0.4020     2.4080 hc         1 XMB       0.053950
     71 H382         2.6060    -1.3990     1.7860 hc         1 XMB       0.053950
     72 H40          7.0530     2.2040     5.4590 h4         1 XMB       0.013600
     73 H411         3.8000    -0.6730    -0.4650 hc         1 XMB       0.053950
     74 H412         3.2640     0.7990    -1.2710 hc         1 XMB       0.053950
     75 H11         -0.6470     3.9660    -0.4860 ha         1 XMB       0.134000
@<TRIPOS>BOND
     1     1     2 2   
     2     1     3 1   
     3     1    25 1   
     4     3     4 1   
     5     3     9 1   
     6     4     5 1   
     7     4    42 1   
     8     4    43 1   
     9     5     6 1   
    10     5    44 1   
    11     5    45 1   
    12     6     7 2   
    13     6     8 2   
    14     6    10 1   
    15     9    10 1   
    16     9    46 1   
    17     9    47 1   
    18    10    48 1   
    19    10    49 1   
    20    11    12 ar  
    21    11    16 ar  
    22    11    75 1   
    23    12    15 ar  
    24    12    22 1   
    25    13    14 ar  
    26    13    16 ar  
    27    13    18 ar  
    28    14    15 ar  
    29    14    50 1   
    30    15    51 1   
    31    16    17 ar  
    32    17    19 ar  
    33    17    52 1   
    34    18    20 ar  
    35    18    53 1   
    36    19    20 ar  
    37    19    54 1   
    38    20    21 1   
    39    22    23 2   
    40    22    24 1   
    41    22    28 2   
    42    24    26 1   
    43    24    55 1   
    44    25    26 1   
    45    25    27 1   
    46    25    56 1   
    47    26    57 1   
    48    26    58 1   
    49    27    29 1   
    50    27    59 1   
    51    29    37 1   
    52    29    60 1   
    53    29    61 1   
    54    30    33 ar  
    55    30    39 ar  
    56    30    62 1   
    57    31    32 1   
    58    31    34 1   
    59    31    36 1   
    60    32    33 ar  
    61    32    35 ar  
    62    33    63 1   
    63    34    38 1   
    64    34    64 1   
    65    34    65 1   
    66    35    40 ar  
    67    35    66 1   
    68    36    41 1   
    69    36    67 1   
    70    36    68 1   
    71    37    38 1   
    72    37    41 1   
    73    37    69 1   
    74    38    70 1   
    75    38    71 1   
    76    39    40 ar  
    77    40    72 1   
    78    41    73 1   
    79    41    74 1   
@<TRIPOS>SUBSTRUCTURE
     1 XMB         1 TEMP              0 ****  ****    0 ROOT
