@<TRIPOS>MOLECULE
XMB
   75    79     1     0     0
SMALL
bcc


@<TRIPOS>ATOM
      1 C1          -0.1000    -1.9480    -2.4630 c          1 XMB       0.642100
      2 O2           0.9710    -2.4250    -2.7990 o          1 XMB      -0.585100
      3 N3          -1.2380    -2.6870    -2.4240 n          1 XMB      -0.482800
      4 C4          -1.1810    -4.1170    -2.6670 c6         1 XMB       0.111000
      5 C5          -1.3040    -4.9060    -1.3670 c6         1 XMB      -0.218600
      6 S6          -2.8560    -4.5380    -0.5560 s6         1 XMB       1.002000
      7 O7          -2.8410    -5.0420     0.8150 o          1 XMB      -0.579800
      8 O8          -3.9390    -4.9590    -1.4460 o          1 XMB      -0.579800
      9 C9          -2.5250    -2.2220    -1.9470 c6         1 XMB       0.111000
     10 C10         -2.8250    -2.7460    -0.5460 c6         1 XMB      -0.218600
     11 C11         -1.0250     2.3360     0.0400 ca         1 XMB       0.008000
     12 C12         -1.9740     2.0300    -0.8980 ca         1 XMB      -0.303500
     13 C13         -2.1930     0.9060     1.6370 ca         1 XMB       0.003000
     14 C14         -3.1660     0.6380     0.6470 ca         1 XMB      -0.137000
     15 C15         -3.0670     1.1900    -0.6000 ca         1 XMB      -0.059000
     16 C16         -1.1190     1.7820     1.3330 ca         1 XMB      -0.070000
     17 C17         -0.1570     2.0640     2.3300 ca         1 XMB      -0.095000
     18 C18         -2.2720     0.3270     2.9230 ca         1 XMB      -0.126000
     19 C19         -0.2460     1.4960     3.5680 ca         1 XMB      -0.127000
     20 C20         -1.3140     0.6200     3.8520 ca         1 XMB       0.047400
     21 CL21        -1.3980    -0.0870     5.4260 cl         1 XMB      -0.089400
     22 S22         -1.7530     2.6300    -2.5540 sy         1 XMB       1.281200
     23 O23         -2.9640     2.3210    -3.2960 o          1 XMB      -0.598300
     24 N24         -0.5310     1.7560    -3.2260 n7         1 XMB      -0.784100
     25 C25         -0.1830    -0.4520    -2.1230 c3         1 XMB       0.063500
     26 C26         -0.6480     0.3150    -3.3770 c3         1 XMB       0.198800
     27 N27          1.0690     0.0950    -1.6760 n7         1 XMB      -0.826200
     28 O28         -1.2630     3.9960    -2.4860 o          1 XMB      -0.598300
     29 C29          1.4930    -0.3280    -0.3530 c3         1 XMB       0.165800
     30 C30          8.7850     1.9130     1.6520 ca         1 XMB       0.430200
     31 N31          5.1950     1.1580     1.3470 nh         1 XMB      -0.667000
     32 C32          6.4220     1.4620     1.8710 ca         1 XMB       0.224600
     33 C33          7.5620     1.6560     1.0660 ca         1 XMB      -0.324800
     34 C34          4.0510     1.0000     2.2310 c6         1 XMB       0.215300
     35 C35          6.6510     1.5790     3.2560 ca         1 XMB      -0.324800
     36 C36          4.8400     1.6050     0.0060 c6         1 XMB       0.215300
     37 C37          2.5510     0.6000     0.2290 c6         1 XMB      -0.058700
     38 C38          2.9760     0.1220     1.6090 c6         1 XMB      -0.085900
     39 N39          8.9990     2.0080     2.9620 nb         1 XMB      -0.692000
     40 C40          7.9250     1.8390     3.7260 ca         1 XMB       0.430200
     41 C41          3.7950     0.7120    -0.6410 c6         1 XMB      -0.085900
     42 H41         -1.9790    -4.3970    -3.3570 h1         1 XMB       0.081450
     43 H42         -0.2380    -4.3730    -3.1400 h1         1 XMB       0.081450
     44 H51         -1.3020    -5.9820    -1.5550 h1         1 XMB       0.113200
     45 H52         -0.4990    -4.6700    -0.6700 h1         1 XMB       0.113200
     46 H91         -2.5840    -1.1380    -1.9290 h1         1 XMB       0.081450
     47 H92         -3.2980    -2.5470    -2.6440 h1         1 XMB       0.081450
     48 H101        -3.8090    -2.4240    -0.1980 h1         1 XMB       0.113200
     49 H102        -2.0690    -2.4300     0.1750 h1         1 XMB       0.113200
     50 H14         -4.0030    -0.0050     0.8870 ha         1 XMB       0.139000
     51 H15         -3.8250     0.9920    -1.3450 ha         1 XMB       0.161000
     52 H17          0.6560     2.7420     2.1050 ha         1 XMB       0.143000
     53 H18         -3.0910    -0.3400     3.1590 ha         1 XMB       0.155000
     54 H19          0.4920     1.7140     4.3280 ha         1 XMB       0.153000
     55 H24          0.3680     2.0080    -2.8190 hn         1 XMB       0.440800
     56 H25         -0.9010    -0.2920    -1.3170 h1         1 XMB       0.077700
     57 H261        -1.6700     0.0540    -3.6550 h1         1 XMB       0.081200
     58 H262        -0.0190     0.0330    -4.2240 h1         1 XMB       0.081200
     59 H27          1.7920    -0.1170    -2.3550 hn         1 XMB       0.386800
     60 H291         0.6220    -0.3100     0.3100 h1         1 XMB       0.040700
     61 H292         1.8700    -1.3610    -0.3400 h1         1 XMB       0.040700
     62 H30          9.6490     2.0500     1.0100 h4         1 XMB       0.013600
     63 H33          7.5260     1.5930    -0.0110 ha         1 XMB       0.136000
     64 H341         3.6310     1.9810     2.4970 h1         1 XMB       0.043450
     65 H342         4.3670     0.5250     3.1570 h1         1 XMB       0.043450
     66 H35          5.8570     1.4880     3.9810 ha         1 XMB       0.136000
     67 H361         4.4580     2.6340     0.0530 h1         1 XMB       0.043450
     68 H362         5.7180     1.6240    -0.6310 h1         1 XMB       0.043450
     69 H37          2.1090     1.6020     0.3160 hc         1 XMB       0.050700
     70 H381         2.1210     0.0990     2.2900 hc         1 XMB       0.053950
     71 H382         3.3520    -0.9040     1.5370 hc         1 XMB       0.053950
     72 H40          8.0750     1.9240     4.7970 h4         1 XMB       0.013600
     73 H411         4.2200    -0.2830    -0.8170 hc         1 XMB       0.053950
     74 H412         3.5570     1.1390    -1.6180 hc         1 XMB       0.053950
     75 H11         -0.1940     2.9920    -0.1880 ha         1 XMB       0.152000
@<TRIPOS>BOND
     1     1     2 2   
     2     1     3 1   
     3     1    25 1   
     4     3     4 1   
     5     3     9 1   
     6     4     5 1   
     7     4    42 1   
     8     4    43 1   
     9     5     6 1   
    10     5    44 1   
    11     5    45 1   
    12     6     7 2   
    13     6     8 2   
    14     6    10 1   
    15     9    10 1   
    16     9    46 1   
    17     9    47 1   
    18    10    48 1   
    19    10    49 1   
    20    11    12 ar  
    21    11    16 ar  
    22    11    75 1   
    23    12    15 ar  
    24    12    22 1   
    25    13    14 ar  
    26    13    16 ar  
    27    13    18 ar  
    28    14    15 ar  
    29    14    50 1   
    30    15    51 1   
    31    16    17 ar  
    32    17    19 ar  
    33    17    52 1   
    34    18    20 ar  
    35    18    53 1   
    36    19    20 ar  
    37    19    54 1   
    38    20    21 1   
    39    22    23 2   
    40    22    24 1   
    41    22    28 2   
    42    24    26 1   
    43    24    55 1   
    44    25    26 1   
    45    25    27 1   
    46    25    56 1   
    47    26    57 1   
    48    26    58 1   
    49    27    29 1   
    50    27    59 1   
    51    29    37 1   
    52    29    60 1   
    53    29    61 1   
    54    30    33 ar  
    55    30    39 ar  
    56    30    62 1   
    57    31    32 1   
    58    31    34 1   
    59    31    36 1   
    60    32    33 ar  
    61    32    35 ar  
    62    33    63 1   
    63    34    38 1   
    64    34    64 1   
    65    34    65 1   
    66    35    40 ar  
    67    35    66 1   
    68    36    41 1   
    69    36    67 1   
    70    36    68 1   
    71    37    38 1   
    72    37    41 1   
    73    37    69 1   
    74    38    70 1   
    75    38    71 1   
    76    39    40 ar  
    77    40    72 1   
    78    41    73 1   
    79    41    74 1   
@<TRIPOS>SUBSTRUCTURE
     1 XMB         1 TEMP              0 ****  ****    0 ROOT
