@<TRIPOS>MOLECULE
XMC
   76    81     1     0     0
SMALL
No Charge or Current Charge


@<TRIPOS>ATOM
      1 C1           0.0530    -0.8280    -3.9260 ca         1 XMC       0.027000
      2 C2           0.8880    -1.3260    -2.9030 ca         1 XMC      -0.312500
      3 C3          -1.7020    -2.3840    -3.2450 ca         1 XMC       0.011000
      4 C4          -0.8600    -2.8880    -2.2370 ca         1 XMC      -0.105000
      5 C5           0.4290    -2.3600    -2.0620 ca         1 XMC      -0.042000
      6 C6          -1.2420    -1.3530    -4.0940 ca         1 XMC      -0.069000
      7 C8          -2.0900    -0.8400    -5.0960 ca         1 XMC      -0.073000
      8 C9          -3.0040    -2.8940    -3.4020 ca         1 XMC      -0.107000
      9 C10         -3.3910    -1.3520    -5.2460 ca         1 XMC      -0.105000
     10 C11         -3.8450    -2.3760    -4.4000 ca         1 XMC       0.143000
     11 S12          2.4910    -0.5640    -2.5930 sy         1 XMC       1.158600
     12 O13          3.4280    -1.6300    -2.2240 o          1 XMC      -0.526500
     13 C14          3.0880     1.8450     0.6960 c          1 XMC       0.585000
     14 O15          4.0360     2.2540     1.3570 o          1 XMC      -0.546000
     15 C16          3.3260     1.1320    -0.6600 c6         1 XMC       0.096800
     16 N17          2.1860     0.3030    -1.1570 n3         1 XMC      -0.704500
     17 C18          0.5670     1.5620     0.3070 c6         1 XMC       0.051700
     18 C19         -0.6370     2.5570     0.2100 c          1 XMC       0.578100
     19 O20         -0.6150     3.6540     0.7570 o          1 XMC      -0.581100
     20 N21         -1.7660     2.1760    -0.5610 n          1 XMC      -0.414800
     21 C22         -2.7930     3.2120    -0.9020 c6         1 XMC       0.057500
     22 C23         -3.8110     2.7560    -1.9790 c6         1 XMC       0.135600
     23 O24         -4.3730     1.4760    -1.6290 os         1 XMC      -0.439000
     24 C25         -2.3460     0.7940    -0.4300 c6         1 XMC       0.057500
     25 C26         -3.3730     0.4450    -1.5370 c6         1 XMC       0.135600
     26 C27          0.9460     1.1090    -1.1340 c6         1 XMC       0.180800
     27 N28          1.7540     1.9560     1.1650 n          1 XMC      -0.385800
     28 O29          2.7900     0.4210    -3.6370 o          1 XMC      -0.526500
     29 C30          1.5220     2.3930     2.5690 c3         1 XMC       0.111000
     30 C31         -1.2560    -2.7520     7.8550 ca         1 XMC       0.366400
     31 N32          0.8550    -0.4190     5.8960 nh         1 XMC      -0.817400
     32 C33          0.3830    -1.2310     6.9490 ca         1 XMC       0.378000
     33 C34         -0.8030    -1.9550     6.7990 ca         1 XMC      -0.250000
     34 C35          1.6910     0.7830     6.1680 c6         1 XMC       0.219800
     35 C36          1.0710    -1.3390     8.1630 ca         1 XMC      -0.250000
     36 C37          1.0930    -1.0190     4.5540 c6         1 XMC       0.219800
     37 C38          1.7480     1.2930     3.6510 c6         1 XMC      -0.084700
     38 C39          1.4830     1.8570     5.0730 c6         1 XMC      -0.084900
     39 N40         -0.5940    -2.8600     9.0270 nb         1 XMC      -0.699000
     40 C41          0.5510    -2.1600     9.1690 ca         1 XMC       0.366400
     41 C42          0.8790     0.0240     3.4310 c6         1 XMC      -0.084900
     42 H1           0.3930    -0.0200    -4.5710 ha         1 XMC       0.140000
     43 H4          -1.2090    -3.6790    -1.5770 ha         1 XMC       0.123000
     44 H5           1.0610    -2.7380    -1.2590 ha         1 XMC       0.132000
     45 H8          -1.7470    -0.0440    -5.7540 ha         1 XMC       0.127000
     46 H9          -3.3670    -3.6850    -2.7520 ha         1 XMC       0.136000
     47 H10         -4.0470    -0.9550    -6.0170 ha         1 XMC       0.137000
     48 H161         4.2250     0.5140    -0.5270 h1         1 XMC       0.088200
     49 H162         3.5720     1.9260    -1.3800 h1         1 XMC       0.088200
     50 H18          0.1390     0.6750     0.7890 h1         1 XMC       0.076700
     51 H221        -3.3410     3.4820     0.0120 h1         1 XMC       0.066700
     52 H222        -2.2900     4.1220    -1.2590 h1         1 XMC       0.066700
     53 H231        -4.6210     3.4940    -2.0670 h1         1 XMC       0.055450
     54 H232        -3.3140     2.6770    -2.9560 h1         1 XMC       0.055450
     55 H251        -1.5650     0.0240    -0.4330 h1         1 XMC       0.066700
     56 H252        -2.8510     0.7220     0.5450 h1         1 XMC       0.066700
     57 H261        -3.8610    -0.5140    -1.3100 h1         1 XMC       0.055450
     58 H262        -2.8630     0.3470    -2.5060 h1         1 XMC       0.055450
     59 H271         1.0740     2.0020    -1.7650 h1         1 XMC       0.068700
     60 H272         0.1010     0.5580    -1.5590 h1         1 XMC       0.068700
     61 H301         2.1730     3.2490     2.7910 h1         1 XMC       0.059700
     62 H302         0.4910     2.7430     2.6860 h1         1 XMC       0.059700
     63 H34         -1.3790    -1.8950     5.8820 ha         1 XMC       0.117500
     64 H351         2.7540     0.5030     6.2090 h1         1 XMC       0.046950
     65 H352         1.4270     1.2240     7.1410 h1         1 XMC       0.046950
     66 H36          2.0020    -0.8100     8.3340 ha         1 XMC       0.117500
     67 H371         2.1210    -1.4060     4.4970 h1         1 XMC       0.046950
     68 H372         0.4190    -1.8690     4.3770 h1         1 XMC       0.046950
     69 H38          2.8070     1.0040     3.5850 hc         1 XMC       0.072700
     70 H391         2.1470     2.7100     5.2710 hc         1 XMC       0.050950
     71 H392         0.4560     2.2400     5.1370 hc         1 XMC       0.050950
     72 H41          1.0690    -2.2650    10.1220 h4         1 XMC       0.011100
     73 H421        -0.1840     0.2980     3.3850 hc         1 XMC       0.050950
     74 H422         1.1290    -0.4460     2.4710 hc         1 XMC       0.050950
     75 Cl7         -5.4740    -3.0110    -4.5870 cl         1 XMC      -0.186000
     76 H31         -2.1790    -3.3220     7.7630 h4         1 XMC       0.011100
@<TRIPOS>BOND
     1     1     2 ar  
     2     1     6 ar  
     3     1    42 1   
     4     2     5 ar  
     5     2    11 1   
     6     3     4 ar  
     7     3     6 ar  
     8     3     8 ar  
     9     4     5 ar  
    10     4    43 1   
    11     5    44 1   
    12     6     7 ar  
    13     7     9 ar  
    14     7    45 1   
    15     8    10 ar  
    16     8    46 1   
    17     9    10 ar  
    18     9    47 1   
    19    10    75 1   
    20    11    12 2   
    21    11    16 1   
    22    11    28 2   
    23    13    14 2   
    24    13    15 1   
    25    13    27 1   
    26    15    16 1   
    27    15    48 1   
    28    15    49 1   
    29    16    26 1   
    30    17    18 1   
    31    17    26 1   
    32    17    27 1   
    33    17    50 1   
    34    18    19 2   
    35    18    20 1   
    36    20    21 1   
    37    20    24 1   
    38    21    22 1   
    39    21    51 1   
    40    21    52 1   
    41    22    23 1   
    42    22    53 1   
    43    22    54 1   
    44    23    25 1   
    45    24    25 1   
    46    24    55 1   
    47    24    56 1   
    48    25    57 1   
    49    25    58 1   
    50    26    59 1   
    51    26    60 1   
    52    27    29 1   
    53    29    37 1   
    54    29    61 1   
    55    29    62 1   
    56    30    33 ar  
    57    30    39 ar  
    58    30    76 1   
    59    31    32 1   
    60    31    34 1   
    61    31    36 1   
    62    32    33 ar  
    63    32    35 ar  
    64    33    63 1   
    65    34    38 1   
    66    34    64 1   
    67    34    65 1   
    68    35    40 ar  
    69    35    66 1   
    70    36    41 1   
    71    36    67 1   
    72    36    68 1   
    73    37    38 1   
    74    37    41 1   
    75    37    69 1   
    76    38    70 1   
    77    38    71 1   
    78    39    40 ar  
    79    40    72 1   
    80    41    73 1   
    81    41    74 1   
@<TRIPOS>SUBSTRUCTURE
     1 XMC         1 TEMP              0 ****  ****    0 ROOT
