@<TRIPOS>MOLECULE
XMC
   76    81     1     0     0
SMALL
bcc


@<TRIPOS>ATOM
      1 C1           1.4200    -0.5550    -4.0630 ca         1 XMC       0.009000
      2 C2           0.5700    -1.2460    -3.2410 ca         1 XMC      -0.312500
      3 C3          -0.3420    -0.4640    -5.7510 ca         1 XMC       0.011000
      4 C4          -1.1850    -1.1850    -4.8730 ca         1 XMC      -0.123000
      5 C5          -0.7440    -1.5740    -3.6410 ca         1 XMC      -0.060000
      6 C6           0.9770    -0.1480    -5.3390 ca         1 XMC      -0.069000
      7 C8           1.8210     0.5670    -6.2200 ca         1 XMC      -0.091000
      8 C9          -0.7850    -0.0590    -7.0290 ca         1 XMC      -0.125000
      9 C10          1.3780     0.9530    -7.4520 ca         1 XMC      -0.123000
     10 C11          0.0640     0.6310    -7.8460 ca         1 XMC       0.051400
     11 S12          1.1010    -1.6830    -1.6130 sy         1 XMC       1.300200
     12 O13          0.3490    -2.8470    -1.1840 o          1 XMC      -0.597300
     13 C14          1.0560     1.7350     0.3950 c          1 XMC       0.727500
     14 O15          1.8150     2.6660     0.6110 o          1 XMC      -0.621500
     15 C16          1.2860     0.8500    -0.8140 c6         1 XMC       0.096800
     16 N17          0.6190    -0.4280    -0.6360 n3         1 XMC      -0.704500
     17 C18         -1.0230     0.4950     0.8790 c6         1 XMC       0.051700
     18 C19         -2.3370     1.2870     0.7390 c          1 XMC       0.645100
     19 O20         -2.2830     2.4480     0.3700 o          1 XMC      -0.581100
     20 N21         -3.4900     0.6360     0.9700 n          1 XMC      -0.481800
     21 C22         -4.7710     1.2960     0.7570 c6         1 XMC       0.057500
     22 C23         -5.6220     0.4570    -0.1800 c6         1 XMC       0.112400
     23 O24         -5.7870    -0.8570     0.3060 os         1 XMC      -0.392600
     24 C25         -3.6510    -0.7310     1.4390 c6         1 XMC       0.057500
     25 C26         -4.5480    -1.4980     0.4800 c6         1 XMC       0.112400
     26 C27         -0.8040    -0.2240    -0.4560 c6         1 XMC       0.180800
     27 N28          0.0420     1.4090     1.2160 n          1 XMC      -0.452800
     28 O29          2.5510    -1.6940    -1.5790 o          1 XMC      -0.597300
     29 C30         -0.0440     2.0460     2.5250 c3         1 XMC       0.111000
     30 C31          2.1990    -2.5700     8.3890 ca         1 XMC       0.431700
     31 N32          1.7830     0.1600     5.9600 nh         1 XMC      -0.679000
     32 C33          1.9990    -0.5220     7.1200 ca         1 XMC       0.239600
     33 C34          2.0220    -1.9310     7.1800 ca         1 XMC      -0.333300
     34 C35          1.7610     1.6120     5.9200 c6         1 XMC       0.219800
     35 C36          2.1920     0.1200     8.3610 ca         1 XMC      -0.333300
     36 C37          2.0370    -0.4420     4.6600 c6         1 XMC       0.219800
     37 C38          1.0050     1.5320     3.5090 c6         1 XMC      -0.084700
     38 C39          0.7600     2.1230     4.8920 c6         1 XMC      -0.084900
     39 N40          2.3670    -1.9580     9.5590 nb         1 XMC      -0.699000
     40 C41          2.3600    -0.6300     9.5090 ca         1 XMC       0.431700
     41 C42          1.0240     0.0130     3.6220 c6         1 XMC      -0.084900
     42 H1           2.4310    -0.3170    -3.7570 ha         1 XMC       0.158000
     43 H4          -2.1890    -1.4370    -5.1890 ha         1 XMC       0.141000
     44 H5          -1.3960    -2.1410    -2.9900 ha         1 XMC       0.150000
     45 H8           2.8290     0.8110    -5.9100 ha         1 XMC       0.145000
     46 H9          -1.7920    -0.2990    -7.3460 ha         1 XMC       0.154000
     47 H10          2.0250     1.5020    -8.1220 ha         1 XMC       0.155000
     48 H161         2.3610     0.7110    -0.8950 h1         1 XMC       0.088200
     49 H162         0.9420     1.3710    -1.7180 h1         1 XMC       0.088200
     50 H18         -1.0730    -0.2530     1.6720 h1         1 XMC       0.076700
     51 H221        -5.2730     1.4130     1.7220 h1         1 XMC       0.066700
     52 H222        -4.6160     2.2860     0.3370 h1         1 XMC       0.066700
     53 H231        -6.6150     0.9000    -0.2730 h1         1 XMC       0.055450
     54 H232        -5.1610     0.4440    -1.1770 h1         1 XMC       0.055450
     55 H251        -2.7010    -1.2500     1.5250 h1         1 XMC       0.066700
     56 H252        -4.0980    -0.7110     2.4380 h1         1 XMC       0.066700
     57 H261        -4.7430    -2.4940     0.8800 h1         1 XMC       0.055450
     58 H262        -4.0320    -1.6160    -0.4850 h1         1 XMC       0.055450
     59 H271        -1.2160     0.3610    -1.2880 h1         1 XMC       0.068700
     60 H272        -1.3300    -1.1760    -0.4200 h1         1 XMC       0.068700
     61 H301         0.0330     3.1290     2.4190 h1         1 XMC       0.059700
     62 H302        -1.0390     1.8430     2.9250 h1         1 XMC       0.059700
     63 H34          1.8850    -2.5470     6.3040 ha         1 XMC       0.135500
     64 H351         2.7620     2.0020     5.6940 h1         1 XMC       0.046950
     65 H352         1.4730     2.0080     6.8900 h1         1 XMC       0.046950
     66 H36          2.2280     1.1940     8.4550 ha         1 XMC       0.135500
     67 H371         3.0480    -0.1700     4.3250 h1         1 XMC       0.046950
     68 H372         2.0120    -1.5250     4.7270 h1         1 XMC       0.046950
     69 H38          1.9940     1.8580     3.1660 hc         1 XMC       0.072700
     70 H391         0.8240     3.2130     4.8650 hc         1 XMC       0.050950
     71 H392        -0.2510     1.8670     5.2270 hc         1 XMC       0.050950
     72 H41          2.5070    -0.1100    10.4500 h4         1 XMC       0.011100
     73 H421         0.0330    -0.3620     3.9030 hc         1 XMC       0.050950
     74 H422         1.2880    -0.4480     2.6670 hc         1 XMC       0.050950
     75 CL7         -0.4690     1.1320    -9.4130 cl         1 XMC      -0.094400
     76 H31          2.2010    -3.6550     8.4070 h4         1 XMC       0.011100
@<TRIPOS>BOND
     1     1     2 ar  
     2     1     6 ar  
     3     1    42 1   
     4     2     5 ar  
     5     2    11 1   
     6     3     4 ar  
     7     3     6 ar  
     8     3     8 ar  
     9     4     5 ar  
    10     4    43 1   
    11     5    44 1   
    12     6     7 ar  
    13     7     9 ar  
    14     7    45 1   
    15     8    10 ar  
    16     8    46 1   
    17     9    10 ar  
    18     9    47 1   
    19    10    75 1   
    20    11    12 2   
    21    11    16 1   
    22    11    28 2   
    23    13    14 2   
    24    13    15 1   
    25    13    27 1   
    26    15    16 1   
    27    15    48 1   
    28    15    49 1   
    29    16    26 1   
    30    17    18 1   
    31    17    26 1   
    32    17    27 1   
    33    17    50 1   
    34    18    19 2   
    35    18    20 1   
    36    20    21 1   
    37    20    24 1   
    38    21    22 1   
    39    21    51 1   
    40    21    52 1   
    41    22    23 1   
    42    22    53 1   
    43    22    54 1   
    44    23    25 1   
    45    24    25 1   
    46    24    55 1   
    47    24    56 1   
    48    25    57 1   
    49    25    58 1   
    50    26    59 1   
    51    26    60 1   
    52    27    29 1   
    53    29    37 1   
    54    29    61 1   
    55    29    62 1   
    56    30    33 ar  
    57    30    39 ar  
    58    30    76 1   
    59    31    32 1   
    60    31    34 1   
    61    31    36 1   
    62    32    33 ar  
    63    32    35 ar  
    64    33    63 1   
    65    34    38 1   
    66    34    64 1   
    67    34    65 1   
    68    35    40 ar  
    69    35    66 1   
    70    36    41 1   
    71    36    67 1   
    72    36    68 1   
    73    37    38 1   
    74    37    41 1   
    75    37    69 1   
    76    38    70 1   
    77    38    71 1   
    78    39    40 ar  
    79    40    72 1   
    80    41    73 1   
    81    41    74 1   
@<TRIPOS>SUBSTRUCTURE
     1 XMC         1 TEMP              0 ****  ****    0 ROOT
