@<TRIPOS>MOLECULE
XMD
   70    74     1     0     0
SMALL
No Charge or Current Charge


@<TRIPOS>ATOM
      1 C1          -0.2620     1.7260    -3.8870 ca         1 XMD       0.021000
      2 C2          -1.1600     0.6590    -3.6780 ca         1 XMD      -0.310500
      3 C3           1.1310     0.2810    -5.2780 ca         1 XMD       0.011000
      4 C4           0.2200    -0.7740    -5.0880 ca         1 XMD      -0.104000
      5 C5          -0.9200    -0.5900    -4.2890 ca         1 XMD      -0.039000
      6 C6           0.8870     1.5370    -4.6790 ca         1 XMD      -0.069000
      7 C8           1.8030     2.5910    -4.8640 ca         1 XMD      -0.076000
      8 C9           2.2870     0.0880    -6.0570 ca         1 XMD      -0.105000
      9 C10          2.9570     2.3920    -5.6410 ca         1 XMD      -0.105000
     10 C11          3.1970     1.1420    -6.2350 ca         1 XMD       0.141000
     11 S12         -2.5660     0.8660    -2.5630 sy         1 XMD       1.157600
     12 O13         -3.6270    -0.0390    -3.0190 o          1 XMD      -0.524000
     13 C14         -0.0530    -0.0750     0.5190 c6         1 XMD       0.072700
     14 C15          1.5060    -0.0610     0.5990 c          1 XMD       0.564100
     15 O16          2.1340    -0.2610    -0.6070 os         1 XMD      -0.448100
     16 C17          3.5680    -0.2380    -0.6580 c3         1 XMD       0.166600
     17 C18          3.9670    -0.4090    -2.1330 c3         1 XMD      -0.099100
     18 O19          2.1180     0.1130     1.6450 o          1 XMD      -0.466000
     19 C20         -0.5040     0.1620    -0.9490 c6         1 XMD       0.179800
     20 N21         -1.9750     0.2220    -1.0870 n3         1 XMD      -0.706500
     21 C22         -2.0150    -1.7170     0.6470 c          1 XMD       0.581000
     22 O23         -2.6290    -2.6240     1.1980 o          1 XMD      -0.544000
     23 C24         -2.5840    -1.0730    -0.6460 c6         1 XMD       0.099800
     24 N25         -0.7800    -1.2420     1.1640 n          1 XMD      -0.392800
     25 O26         -2.8210     2.2900    -2.3210 o          1 XMD      -0.524000
     26 C27         -0.2100    -1.9100     2.3690 c3         1 XMD       0.109000
     27 C28          0.8220     1.8910     9.2150 ca         1 XMD       0.363900
     28 N29         -0.3830    -0.2930     6.4730 nh         1 XMD      -0.812400
     29 C30         -0.1790     0.2460     7.7610 ca         1 XMD       0.369000
     30 C31          0.6300     1.3730     7.9300 ca         1 XMD      -0.244000
     31 C32         -0.6800    -1.7400     6.2830 c6         1 XMD       0.216800
     32 C33         -0.7660    -0.3190     8.8990 ca         1 XMD      -0.244000
     33 C34         -0.9210     0.5740     5.3880 c6         1 XMD       0.216800
     34 C35         -0.7320    -1.3830     3.7400 c6         1 XMD      -0.085700
     35 C36         -0.1680    -2.2350     4.9090 c6         1 XMD      -0.083900
     36 N37          0.2570     1.3500    10.3150 nb         1 XMD      -0.696000
     37 C38         -0.5250     0.2620    10.1490 ca         1 XMD       0.363900
     38 C39         -0.4110     0.1140     4.0010 c6         1 XMD      -0.083900
     39 H1          -0.4360     2.6920    -3.4150 ha         1 XMD       0.138000
     40 H4           0.4020    -1.7440    -5.5460 ha         1 XMD       0.125000
     41 H5          -1.6030    -1.4240    -4.1320 ha         1 XMD       0.137000
     42 H8           1.6260     3.5610    -4.4040 ha         1 XMD       0.124000
     43 H9           2.4840    -0.8750    -6.5200 ha         1 XMD       0.137000
     44 H10          3.6660     3.2040    -5.7820 ha         1 XMD       0.135000
     45 H14         -0.3510     0.8280     1.0650 h1         1 XMD       0.093700
     46 H171         3.9970    -1.0520    -0.0590 h1         1 XMD       0.051200
     47 H172         3.9590     0.7180    -0.2820 h1         1 XMD       0.051200
     48 H181         5.0580    -0.3920    -2.2360 hc         1 XMD       0.050367
     49 H182         3.5970    -1.3640    -2.5240 hc         1 XMD       0.050367
     50 H183         3.5510     0.4030    -2.7420 hc         1 XMD       0.050367
     51 H201        -0.0490     1.1070    -1.2800 h1         1 XMD       0.072700
     52 H202        -0.0990    -0.6390    -1.5870 h1         1 XMD       0.072700
     53 H241        -3.6640    -0.9550    -0.4810 h1         1 XMD       0.089700
     54 H242        -2.4520    -1.8390    -1.4240 h1         1 XMD       0.089700
     55 H271        -0.4380    -2.9830     2.3110 h1         1 XMD       0.060700
     56 H272         0.8830    -1.8500     2.3620 h1         1 XMD       0.060700
     57 H31          1.1180     1.8400     7.0810 ha         1 XMD       0.118500
     58 H321        -1.7640    -1.9160     6.3540 h1         1 XMD       0.045700
     59 H322        -0.1950    -2.3380     7.0690 h1         1 XMD       0.045700
     60 H33         -1.4120    -1.1870     8.8300 ha         1 XMD       0.118500
     61 H341        -2.0210     0.5410     5.3970 h1         1 XMD       0.045700
     62 H342        -0.6290     1.6230     5.5400 h1         1 XMD       0.045700
     63 H35         -1.8240    -1.5050     3.7220 hc         1 XMD       0.072700
     64 H361        -0.4460    -3.2890     4.7780 hc         1 XMD       0.051200
     65 H362         0.9300    -2.1990     4.9000 hc         1 XMD       0.051200
     66 H38         -0.9730    -0.1560    11.0500 h4         1 XMD       0.011600
     67 H391         0.6720     0.2840     3.9420 hc         1 XMD       0.051200
     68 H392        -0.8750     0.7450     3.2330 hc         1 XMD       0.051200
     69 Cl7          4.6450     0.8950    -7.2030 cl         1 XMD      -0.187000
     70 H28          1.4520     2.7660     9.3720 h4         1 XMD       0.011600
@<TRIPOS>BOND
     1     1     2 ar  
     2     1     6 ar  
     3     1    39 1   
     4     2     5 ar  
     5     2    11 1   
     6     3     4 ar  
     7     3     6 ar  
     8     3     8 ar  
     9     4     5 ar  
    10     4    40 1   
    11     5    41 1   
    12     6     7 ar  
    13     7     9 ar  
    14     7    42 1   
    15     8    10 ar  
    16     8    43 1   
    17     9    10 ar  
    18     9    44 1   
    19    10    69 1   
    20    11    12 2   
    21    11    20 1   
    22    11    25 2   
    23    13    14 1   
    24    13    19 1   
    25    13    24 1   
    26    13    45 1   
    27    14    15 1   
    28    14    18 2   
    29    15    16 1   
    30    16    17 1   
    31    16    46 1   
    32    16    47 1   
    33    17    48 1   
    34    17    49 1   
    35    17    50 1   
    36    19    20 1   
    37    19    51 1   
    38    19    52 1   
    39    20    23 1   
    40    21    22 2   
    41    21    23 1   
    42    21    24 1   
    43    23    53 1   
    44    23    54 1   
    45    24    26 1   
    46    26    34 1   
    47    26    55 1   
    48    26    56 1   
    49    27    30 ar  
    50    27    36 ar  
    51    27    70 1   
    52    28    29 1   
    53    28    31 1   
    54    28    33 1   
    55    29    30 ar  
    56    29    32 ar  
    57    30    57 1   
    58    31    35 1   
    59    31    58 1   
    60    31    59 1   
    61    32    37 ar  
    62    32    60 1   
    63    33    38 1   
    64    33    61 1   
    65    33    62 1   
    66    34    35 1   
    67    34    38 1   
    68    34    63 1   
    69    35    64 1   
    70    35    65 1   
    71    36    37 ar  
    72    37    66 1   
    73    38    67 1   
    74    38    68 1   
@<TRIPOS>SUBSTRUCTURE
     1 XMD         1 TEMP              0 ****  ****    0 ROOT
