@<TRIPOS>MOLECULE
XMD
   70    74     1     0     0
SMALL
bcc


@<TRIPOS>ATOM
      1 C1          -0.1940     1.2770    -3.9620 ca         1 XMD       0.003000
      2 C2          -1.2490     0.6770    -3.3290 ca         1 XMD      -0.310500
      3 C3          -0.5180    -0.2270    -5.8570 ca         1 XMD       0.011000
      4 C4          -1.6070    -0.8150    -5.1710 ca         1 XMD      -0.122000
      5 C5          -1.9750    -0.3750    -3.9320 ca         1 XMD      -0.057000
      6 C6           0.1930     0.8340    -5.2440 ca         1 XMD      -0.069000
      7 C8           1.2760     1.4280    -5.9330 ca         1 XMD      -0.094000
      8 C9          -0.1300    -0.6710    -7.1400 ca         1 XMD      -0.123000
      9 C10          1.6410     0.9870    -7.1730 ca         1 XMD      -0.123000
     10 C11          0.9240    -0.0710    -7.7680 ca         1 XMD       0.049400
     11 S12         -1.6750     1.1850    -1.6900 sy         1 XMD       1.299200
     12 O13         -3.0910     0.9470    -1.4830 o          1 XMD      -0.594800
     13 C14          1.0830    -0.2720     0.6700 c6         1 XMD       0.072700
     14 C15          2.5390    -0.6900     0.4760 c          1 XMD       0.613100
     15 O16          3.3340     0.3570     0.5250 os         1 XMD      -0.424900
     16 C17          4.7400     0.1580     0.2710 c3         1 XMD       0.143400
     17 C18          5.4300     1.4880     0.4400 c3         1 XMD      -0.099100
     18 O19          2.8870    -1.8200     0.2580 o          1 XMD      -0.515000
     19 C20          0.5780     0.1770    -0.7030 c6         1 XMD       0.179800
     20 N21         -0.8700     0.1450    -0.6740 n3         1 XMD      -0.706500
     21 C22         -0.7560    -1.9250     0.6210 c          1 XMD       0.723500
     22 O23         -1.2890    -2.9410     1.0320 o          1 XMD      -0.619500
     23 C24         -1.3420    -1.2260    -0.5910 c6         1 XMD       0.099800
     24 N25          0.3180    -1.3700     1.2170 n          1 XMD      -0.459800
     25 O26         -1.1120     2.5010    -1.4540 o          1 XMD      -0.594800
     26 C27          0.7200    -1.8760     2.5270 c3         1 XMD       0.109000
     27 C28         -1.2990     2.4770     8.7180 ca         1 XMD       0.429200
     28 N29         -0.7600    -0.1500     6.2020 nh         1 XMD      -0.674000
     29 C30         -0.9790     0.4840     7.3930 ca         1 XMD       0.230600
     30 C31         -1.1300     1.8830     7.4850 ca         1 XMD      -0.327300
     31 C32         -0.5750    -1.5900     6.1570 c6         1 XMD       0.216800
     32 C33         -1.0400    -0.2000     8.6220 ca         1 XMD      -0.327300
     33 C34         -1.2660     0.4090     4.9550 c6         1 XMD       0.216800
     34 C35         -0.2210    -1.4650     3.6560 c6         1 XMD      -0.085700
     35 C36          0.3000    -2.0020     4.9820 c6         1 XMD      -0.083900
     36 N37         -1.3440     1.8270     9.8790 nb         1 XMD      -0.696000
     37 C38         -1.2150     0.5070     9.7960 ca         1 XMD       0.429200
     38 C39         -0.3810     0.0450     3.7750 c6         1 XMD      -0.083900
     39 H1           0.3510     2.0920    -3.5030 ha         1 XMD       0.156000
     40 H4          -2.1590    -1.6180    -5.6410 ha         1 XMD       0.143000
     41 H5          -2.8180    -0.8250    -3.4260 ha         1 XMD       0.155000
     42 H8           1.8210     2.2400    -5.4690 ha         1 XMD       0.142000
     43 H9          -0.6710    -1.4800    -7.6130 ha         1 XMD       0.155000
     44 H10          2.4690     1.4430    -7.6980 ha         1 XMD       0.153000
     45 H14          1.0350     0.5840     1.3490 h1         1 XMD       0.093700
     46 H171         4.8720    -0.2290    -0.7410 h1         1 XMD       0.051200
     47 H172         5.1320    -0.5810     0.9720 h1         1 XMD       0.051200
     48 H181         6.4950     1.3610     0.2450 hc         1 XMD       0.050367
     49 H182         5.0480     2.2320    -0.2590 hc         1 XMD       0.050367
     50 H183         5.3190     1.8720     1.4540 hc         1 XMD       0.050367
     51 H201         0.9460     1.1840    -0.8830 h1         1 XMD       0.072700
     52 H202         0.9600    -0.4750    -1.4990 h1         1 XMD       0.072700
     53 H241        -2.4220    -1.2510    -0.4690 h1         1 XMD       0.089700
     54 H242        -1.0870    -1.8100    -1.4850 h1         1 XMD       0.089700
     55 H271         0.8080    -2.9620     2.4860 h1         1 XMD       0.060700
     56 H272         1.7180    -1.4940     2.7470 h1         1 XMD       0.060700
     57 H31         -1.0950     2.5240     6.6180 ha         1 XMD       0.136500
     58 H321        -1.5450    -2.1040     6.0990 h1         1 XMD       0.045700
     59 H322        -0.0880    -1.9250     7.0690 h1         1 XMD       0.045700
     60 H33         -0.9740    -1.2760     8.6870 ha         1 XMD       0.136500
     61 H341        -2.2850     0.0400     4.7770 h1         1 XMD       0.045700
     62 H342        -1.3320     1.4900     5.0240 h1         1 XMD       0.045700
     63 H35         -1.2090    -1.9030     3.4710 hc         1 XMD       0.072700
     64 H361         0.3540    -3.0940     4.9650 hc         1 XMD       0.051200
     65 H362         1.3180    -1.6350     5.1490 hc         1 XMD       0.051200
     66 H38         -1.2610    -0.0430    10.7310 h4         1 XMD       0.011600
     67 H391         0.6010     0.5140     3.9050 hc         1 XMD       0.051200
     68 H392        -0.8300     0.4690     2.8730 hc         1 XMD       0.051200
     69 CL7          1.4070    -0.6090    -9.3390 cl         1 XMD      -0.095400
     70 H28         -1.4010     3.5570     8.7650 h4         1 XMD       0.011600
@<TRIPOS>BOND
     1     1     2 ar  
     2     1     6 ar  
     3     1    39 1   
     4     2     5 ar  
     5     2    11 1   
     6     3     4 ar  
     7     3     6 ar  
     8     3     8 ar  
     9     4     5 ar  
    10     4    40 1   
    11     5    41 1   
    12     6     7 ar  
    13     7     9 ar  
    14     7    42 1   
    15     8    10 ar  
    16     8    43 1   
    17     9    10 ar  
    18     9    44 1   
    19    10    69 1   
    20    11    12 2   
    21    11    20 1   
    22    11    25 2   
    23    13    14 1   
    24    13    19 1   
    25    13    24 1   
    26    13    45 1   
    27    14    15 1   
    28    14    18 2   
    29    15    16 1   
    30    16    17 1   
    31    16    46 1   
    32    16    47 1   
    33    17    48 1   
    34    17    49 1   
    35    17    50 1   
    36    19    20 1   
    37    19    51 1   
    38    19    52 1   
    39    20    23 1   
    40    21    22 2   
    41    21    23 1   
    42    21    24 1   
    43    23    53 1   
    44    23    54 1   
    45    24    26 1   
    46    26    34 1   
    47    26    55 1   
    48    26    56 1   
    49    27    30 ar  
    50    27    36 ar  
    51    27    70 1   
    52    28    29 1   
    53    28    31 1   
    54    28    33 1   
    55    29    30 ar  
    56    29    32 ar  
    57    30    57 1   
    58    31    35 1   
    59    31    58 1   
    60    31    59 1   
    61    32    37 ar  
    62    32    60 1   
    63    33    38 1   
    64    33    61 1   
    65    33    62 1   
    66    34    35 1   
    67    34    38 1   
    68    34    63 1   
    69    35    64 1   
    70    35    65 1   
    71    36    37 ar  
    72    37    66 1   
    73    38    67 1   
    74    38    68 1   
@<TRIPOS>SUBSTRUCTURE
     1 XMD         1 TEMP              0 ****  ****    0 ROOT
