@<TRIPOS>MOLECULE
XMG
   64    68     1     0     0
SMALL
No Charge or Current Charge


@<TRIPOS>ATOM
      1 C1          -2.1110    -0.9600    -0.6420 c3         1 XMG       0.179800
      2 S2           2.5280     1.2830    -1.6240 sy         1 XMG       1.169600
      3 O3           2.9760     2.6060    -2.0750 o          1 XMG      -0.558500
      4 C4          -0.9060     1.1620    -1.1700 c6         1 XMG       0.134800
      5 C5           0.1580     2.2040    -0.6920 c6         1 XMG       0.213800
      6 N6           1.4590     1.5830    -0.3290 n3         1 XMG      -0.743500
      7 C7           0.2170    -0.5760     0.2020 c6         1 XMG       0.005500
      8 C8           1.2500     0.4950     0.6700 c6         1 XMG       0.206800
      9 N9          -1.1170     0.0510    -0.1860 n3         1 XMG      -0.684600
     10 O10          1.8940     0.3240    -2.5350 o          1 XMG      -0.558500
     11 C11          4.7820     1.2930    -0.0060 ca         1 XMG       0.048000
     12 C12          3.9260     0.5060    -0.8010 ca         1 XMG      -0.295500
     13 C13          6.1030    -0.6890     0.5300 ca         1 XMG       0.009000
     14 C14          5.2450    -1.4720    -0.2630 ca         1 XMG      -0.127000
     15 C15          4.1580    -0.8800    -0.9270 ca         1 XMG      -0.027000
     16 C16          5.8720     0.6990     0.6600 ca         1 XMG      -0.059000
     17 C18          6.7310     1.4810     1.4570 ca         1 XMG      -0.047000
     18 C19          7.1910    -1.2830     1.1960 ca         1 XMG      -0.113000
     19 C20          7.8160     0.8810     2.1200 ca         1 XMG      -0.123000
     20 C21          8.0440    -0.4980     1.9880 ca         1 XMG       0.140000
     21 C22          0.2080    -1.7130     1.2920 c          1 XMG       0.723000
     22 O23         -0.4750    -1.5400     2.2950 o          1 XMG      -0.712000
     23 O24          0.5160    -2.8390     0.9190 o          1 XMG      -0.712000
     24 C25         -9.9180    -1.6290     0.2610 ca         1 XMG       0.359900
     25 N26         -6.4760    -0.4030    -0.3630 nh         1 XMG      -0.791400
     26 C27         -7.8620    -0.4180    -0.0980 ca         1 XMG       0.377000
     27 C28         -8.5450    -1.6350    -0.0040 ca         1 XMG      -0.249000
     28 C29         -5.9450    -1.0890    -1.5720 c6         1 XMG       0.212800
     29 C30         -8.5940     0.7620     0.0780 ca         1 XMG      -0.249000
     30 C31         -5.6200     0.7200     0.1120 c6         1 XMG       0.212800
     31 C32         -3.5640    -0.4410    -0.8890 c6         1 XMG      -0.051700
     32 C33         -4.5020    -1.5930    -1.3370 c6         1 XMG      -0.083900
     33 N34        -10.6280    -0.4930     0.4300 nb         1 XMG      -0.715000
     34 C35         -9.9660     0.6800     0.3380 ca         1 XMG       0.359900
     35 C36         -4.1690     0.2480     0.3640 c6         1 XMG      -0.083900
     36 H11A        -1.7570    -1.4290    -1.5700 h1         1 XMG       0.043200
     37 H12         -2.1870    -1.7610     0.1050 h1         1 XMG       0.043200
     38 H41         -1.8460     1.7040    -1.3390 h1         1 XMG       0.018700
     39 H42         -0.6020     0.7500    -2.1430 h1         1 XMG       0.018700
     40 H51         -0.2560     2.7180     0.1870 h1         1 XMG       0.061700
     41 H52          0.2870     2.9750    -1.4670 h1         1 XMG       0.061700
     42 H7           0.6360    -1.0510    -0.6970 h1         1 XMG       0.017700
     43 H81          0.8670     0.9330     1.6040 h1         1 XMG       0.079200
     44 H82          2.1930     0.0000     0.9450 h1         1 XMG       0.079200
     45 H14          5.4160    -2.5410    -0.3650 ha         1 XMG       0.109000
     46 H15          3.4990    -1.5000    -1.5320 ha         1 XMG       0.127000
     47 H18          6.5600     2.5510     1.5650 ha         1 XMG       0.132000
     48 H19          7.3770    -2.3500     1.1020 ha         1 XMG       0.123000
     49 H20          8.4790     1.4840     2.7350 ha         1 XMG       0.127000
     50 H28         -8.0220    -2.5770    -0.1200 ha         1 XMG       0.118500
     51 H291        -5.9530    -0.3950    -2.4250 h1         1 XMG       0.032700
     52 H292        -6.5770    -1.9470    -1.8450 h1         1 XMG       0.032700
     53 H30         -8.1230     1.7350     0.0050 ha         1 XMG       0.118500
     54 H311        -5.6160     1.5290    -0.6330 h1         1 XMG       0.032700
     55 H312        -6.0180     1.1340     1.0500 h1         1 XMG       0.032700
     56 H32         -3.5170     0.2880    -1.7090 hc         1 XMG       0.025700
     57 H331        -4.1230    -2.0530    -2.2590 hc         1 XMG       0.066200
     58 H332        -4.5160    -2.3850    -0.5750 hc         1 XMG       0.066200
     59 H35        -10.5600     1.5830     0.4750 h4         1 XMG       0.002600
     60 H361        -4.1560    -0.4470     1.2140 hc         1 XMG       0.066200
     61 H362        -3.5560     1.1100     0.6590 hc         1 XMG       0.066200
     62 Cl17         9.4020    -1.2440     2.8190 cl         1 XMG      -0.220000
     63 H25        -10.4720    -2.5640     0.3430 h4         1 XMG       0.002600
     64 H11          4.5990     2.3610     0.1000 ha         1 XMG       0.149000
@<TRIPOS>BOND
     1     1     9 1   
     2     1    31 1   
     3     1    36 1   
     4     1    37 1   
     5     2     3 2   
     6     2     6 1   
     7     2    10 2   
     8     2    12 1   
     9     4     5 1   
    10     4     9 1   
    11     4    38 1   
    12     4    39 1   
    13     5     6 1   
    14     5    40 1   
    15     5    41 1   
    16     6     8 1   
    17     7     8 1   
    18     7     9 1   
    19     7    21 1   
    20     7    42 1   
    21     8    43 1   
    22     8    44 1   
    23    11    12 ar  
    24    11    16 ar  
    25    11    64 1   
    26    12    15 ar  
    27    13    14 ar  
    28    13    16 ar  
    29    13    18 ar  
    30    14    15 ar  
    31    14    45 1   
    32    15    46 1   
    33    16    17 ar  
    34    17    19 ar  
    35    17    47 1   
    36    18    20 ar  
    37    18    48 1   
    38    19    20 ar  
    39    19    49 1   
    40    20    62 1   
    41    21    22 1   
    42    21    23 1   
    43    24    27 ar  
    44    24    33 ar  
    45    24    63 1   
    46    25    26 1   
    47    25    28 1   
    48    25    30 1   
    49    26    27 ar  
    50    26    29 ar  
    51    27    50 1   
    52    28    32 1   
    53    28    51 1   
    54    28    52 1   
    55    29    34 ar  
    56    29    53 1   
    57    30    35 1   
    58    30    54 1   
    59    30    55 1   
    60    31    32 1   
    61    31    35 1   
    62    31    56 1   
    63    32    57 1   
    64    32    58 1   
    65    33    34 ar  
    66    34    59 1   
    67    35    60 1   
    68    35    61 1   
@<TRIPOS>SUBSTRUCTURE
     1 XMG         1 TEMP              0 ****  ****    0 ROOT
