@<TRIPOS>MOLECULE
XMG
   64    68     1     0     0
SMALL
bcc


@<TRIPOS>ATOM
      1 C1          -1.2540    -0.3560    -0.0180 c3         1 XMG       0.179800
      2 S2           2.8320     3.0660    -1.0460 sy         1 XMG       1.311200
      3 O3           3.5200     3.8980    -0.0710 o          1 XMG      -0.629300
      4 C4          -0.2850     1.2880    -1.4390 c6         1 XMG       0.134800
      5 C5           0.1960     2.7190    -1.5740 c6         1 XMG       0.213800
      6 N6           1.2520     3.0260    -0.6160 n3         1 XMG      -0.743500
      7 C7           0.4140     1.1810     0.8440 c6         1 XMG       0.005500
      8 C8           0.9020     2.6280     0.7450 c6         1 XMG       0.206800
      9 N9          -0.6890     0.9800    -0.0810 n3         1 XMG      -0.684600
     10 O10          2.8880     3.4220    -2.4550 o          1 XMG      -0.629300
     11 C11          4.0300     1.0510     0.3290 ca         1 XMG       0.030000
     12 C12          3.4760     1.4230    -0.8650 ca         1 XMG      -0.295500
     13 C13          4.2860    -1.2200    -0.5270 ca         1 XMG       0.009000
     14 C14          3.7260    -0.7900    -1.7540 ca         1 XMG      -0.145000
     15 C15          3.3260     0.5040    -1.9260 ca         1 XMG      -0.045000
     16 C16          4.4430    -0.2830     0.5250 ca         1 XMG      -0.059000
     17 C18          5.0030    -0.7110     1.7500 ca         1 XMG      -0.065000
     18 C19          4.6930    -2.5580    -0.3300 ca         1 XMG      -0.131000
     19 C20          5.3910    -2.0080     1.9280 ca         1 XMG      -0.141000
     20 C21          5.2280    -2.9270     0.8710 ca         1 XMG       0.048400
     21 C22          0.0770     0.9720     2.3450 c          1 XMG       0.933600
     22 O23         -1.1060     1.0710     2.7110 o          1 XMG      -0.817300
     23 O24          1.0770     0.7790     3.0640 o          1 XMG      -0.817300
     24 C25         -8.7450    -2.7540     0.2270 ca         1 XMG       0.425200
     25 N26         -5.5330    -0.9890    -0.1350 nh         1 XMG      -0.653000
     26 C27         -6.8670    -1.2440     0.0200 ca         1 XMG       0.238600
     27 C28         -7.3970    -2.5520     0.0180 ca         1 XMG      -0.332300
     28 C29         -4.6800    -1.9460    -0.8280 c6         1 XMG       0.212800
     29 C30         -7.8230    -0.2270     0.2190 ca         1 XMG      -0.332300
     30 C31         -5.0580     0.3840    -0.2140 c6         1 XMG       0.212800
     31 C32         -2.6880    -0.4290    -0.5330 c6         1 XMG      -0.051700
     32 C33         -3.2300    -1.8440    -0.3890 c6         1 XMG      -0.083900
     33 N34         -9.6400    -1.7890     0.4290 nb         1 XMG      -0.715000
     34 C35         -9.1500    -0.5540     0.4170 ca         1 XMG       0.425200
     35 C36         -3.6070     0.5170     0.2210 c6         1 XMG      -0.083900
     36 H11A        -0.6300    -1.0810    -0.5700 h1         1 XMG       0.043200
     37 H12         -1.2670    -0.6840     1.0200 h1         1 XMG       0.043200
     38 H41         -1.1340     1.1590    -2.1120 h1         1 XMG       0.018700
     39 H42          0.5060     0.6020    -1.7940 h1         1 XMG       0.018700
     40 H51         -0.6270     3.4080    -1.3670 h1         1 XMG       0.061700
     41 H52          0.5330     2.9160    -2.5890 h1         1 XMG       0.061700
     42 H7           1.2560     0.5090     0.6030 h1         1 XMG       0.017700
     43 H81          0.1010     3.2950     1.0760 h1         1 XMG       0.079200
     44 H82          1.7460     2.7800     1.4150 h1         1 XMG       0.079200
     45 H14          3.6190    -1.5010    -2.5640 ha         1 XMG       0.127000
     46 H15          2.9060     0.8200    -2.8700 ha         1 XMG       0.145000
     47 H18          5.1210     0.0020     2.5560 ha         1 XMG       0.150000
     48 H19          4.5750    -3.2760    -1.1310 ha         1 XMG       0.141000
     49 H20          5.8160    -2.3330     2.8670 ha         1 XMG       0.145000
     50 H28         -6.7770    -3.4240    -0.1280 ha         1 XMG       0.136500
     51 H291        -4.7520    -1.7850    -1.9130 h1         1 XMG       0.032700
     52 H292        -5.0210    -2.9600    -0.6370 h1         1 XMG       0.032700
     53 H30         -7.5620     0.8200     0.2120 ha         1 XMG       0.136500
     54 H311        -5.1810     0.7670    -1.2380 h1         1 XMG       0.032700
     55 H312        -5.6570     1.0160     0.4370 h1         1 XMG       0.032700
     56 H32         -2.7200    -0.1680    -1.6000 hc         1 XMG       0.025700
     57 H331        -2.6440    -2.5510    -0.9820 hc         1 XMG       0.066200
     58 H332        -3.1490    -2.1620     0.6560 hc         1 XMG       0.066200
     59 H35         -9.8640     0.2490     0.5680 h4         1 XMG       0.002600
     60 H361        -3.5220     0.3210     1.2940 hc         1 XMG       0.066200
     61 H362        -3.2940     1.5500     0.0690 hc         1 XMG       0.066200
     62 CL17         5.7260    -4.5640     1.1220 cl         1 XMG      -0.128400
     63 H25         -9.1220    -3.7710     0.2300 h4         1 XMG       0.002600
     64 H11          4.1490     1.7590     1.1400 ha         1 XMG       0.167000
@<TRIPOS>BOND
     1     1     9 1   
     2     1    31 1   
     3     1    36 1   
     4     1    37 1   
     5     2     3 2   
     6     2     6 1   
     7     2    10 2   
     8     2    12 1   
     9     4     5 1   
    10     4     9 1   
    11     4    38 1   
    12     4    39 1   
    13     5     6 1   
    14     5    40 1   
    15     5    41 1   
    16     6     8 1   
    17     7     8 1   
    18     7     9 1   
    19     7    21 1   
    20     7    42 1   
    21     8    43 1   
    22     8    44 1   
    23    11    12 ar  
    24    11    16 ar  
    25    11    64 1   
    26    12    15 ar  
    27    13    14 ar  
    28    13    16 ar  
    29    13    18 ar  
    30    14    15 ar  
    31    14    45 1   
    32    15    46 1   
    33    16    17 ar  
    34    17    19 ar  
    35    17    47 1   
    36    18    20 ar  
    37    18    48 1   
    38    19    20 ar  
    39    19    49 1   
    40    20    62 1   
    41    21    22 1   
    42    21    23 1   
    43    24    27 ar  
    44    24    33 ar  
    45    24    63 1   
    46    25    26 1   
    47    25    28 1   
    48    25    30 1   
    49    26    27 ar  
    50    26    29 ar  
    51    27    50 1   
    52    28    32 1   
    53    28    51 1   
    54    28    52 1   
    55    29    34 ar  
    56    29    53 1   
    57    30    35 1   
    58    30    54 1   
    59    30    55 1   
    60    31    32 1   
    61    31    35 1   
    62    31    56 1   
    63    32    57 1   
    64    32    58 1   
    65    33    34 ar  
    66    34    59 1   
    67    35    60 1   
    68    35    61 1   
@<TRIPOS>SUBSTRUCTURE
     1 XMG         1 TEMP              0 ****  ****    0 ROOT
