@<TRIPOS>MOLECULE
XMH
   71    75     1     0     0
SMALL
bcc


@<TRIPOS>ATOM
      1 C1           1.7510    -1.0000    -2.7840 c3         1 XMH       0.182800
      2 C2          -4.3570     0.8910    -7.3760 ca         1 XMH       0.429200
      3 N3          -1.1490     0.5620    -5.6060 nh         1 XMH      -0.670000
      4 C4          -2.0850     0.8610    -6.5560 ca         1 XMH       0.229600
      5 C5          -3.4590     0.6090    -6.3680 ca         1 XMH      -0.327800
      6 C6           0.2580     0.8370    -5.8520 c6         1 XMH       0.215800
      7 C7          -1.7540     1.4190    -7.8070 ca         1 XMH      -0.327800
      8 C8          -1.5070     0.5660    -4.1930 c6         1 XMH       0.215800
      9 C9           0.8340    -0.0560    -3.5550 c6         1 XMH      -0.062700
     10 C10          1.1590    -0.0860    -5.0420 c6         1 XMH      -0.081400
     11 N11         -4.0370     1.4100    -8.5600 nb         1 XMH      -0.697000
     12 C12         -2.7450     1.6580    -8.7400 ca         1 XMH       0.429200
     13 C13         -0.6410    -0.3860    -3.3860 c6         1 XMH      -0.081400
     14 O15          0.7960    -3.9820     2.8370 o          1 XMH      -0.601300
     15 C16          2.5140    -0.8270    -0.4690 c6         1 XMH       0.136500
     16 C17          2.0340    -0.8610     0.9890 c6         1 XMH       0.191800
     17 N18          1.4360    -2.1610     1.2540 n3         1 XMH      -0.715500
     18 C19          0.7970    -2.3790    -1.0560 c6         1 XMH       0.173800
     19 C20          0.3000    -2.4230     0.3720 c6         1 XMH       0.186800
     20 N21          1.4150    -1.1010    -1.3650 n3         1 XMH      -0.727600
     21 O22          2.5570    -2.3090     3.4830 o          1 XMH      -0.601300
     22 C23          0.3990    -0.4050     4.1400 ca         1 XMH       0.004000
     23 C24          0.0390    -1.5810     3.5390 ca         1 XMH      -0.303500
     24 C25         -1.9610     0.0740     4.5430 ca         1 XMH       0.010000
     25 C26         -2.2890    -1.1500     3.9160 ca         1 XMH      -0.126000
     26 C27         -1.3140    -1.9690     3.4230 ca         1 XMH      -0.054000
     27 C28         -0.5980     0.4500     4.6550 ca         1 XMH      -0.068000
     28 C30         -0.2710     1.6710     5.2880 ca         1 XMH      -0.092000
     29 C31         -2.9600     0.9260     5.0630 ca         1 XMH      -0.123000
     30 C32         -1.2480     2.4850     5.7860 ca         1 XMH      -0.125000
     31 C33         -2.5980     2.0970     5.6650 ca         1 XMH       0.048400
     32 C34          3.0640     0.5740    -0.6920 c          1 XMH       0.632100
     33 O35          4.3640     0.6160    -0.4610 os         1 XMH      -0.425900
     34 C36          5.0270     1.8900    -0.5510 c3         1 XMH       0.143400
     35 C37          6.4830     1.6750    -0.2210 c3         1 XMH      -0.098100
     36 O38          2.3940     1.5300    -0.9870 o          1 XMH      -0.518000
     37 H11          2.7870    -0.6690    -2.9130 h1         1 XMH       0.035200
     38 H12A         1.7180    -1.9960    -3.2480 h1         1 XMH       0.035200
     39 H2          -5.4080     0.6800    -7.2100 h4         1 XMH       0.011100
     40 H5          -3.8450     0.1750    -5.4580 ha         1 XMH       0.135500
     41 H61          0.4920     1.8850    -5.6200 h1         1 XMH       0.043700
     42 H62          0.4810     0.6820    -6.9050 h1         1 XMH       0.043700
     43 H7          -0.7410     1.6860    -8.0690 ha         1 XMH       0.135500
     44 H81         -1.4040     1.5850    -3.7940 h1         1 XMH       0.043700
     45 H82         -2.5490     0.2870    -4.0690 h1         1 XMH       0.043700
     46 H9           1.0020     0.9590    -3.1780 hc         1 XMH       0.073700
     47 H101         2.1960     0.2090    -5.2230 hc         1 XMH       0.050200
     48 H102         1.0480    -1.1090    -5.4160 hc         1 XMH       0.050200
     49 H12         -2.4630     2.0930    -9.6940 h4         1 XMH       0.011100
     50 H131        -0.8340    -1.4120    -3.7180 hc         1 XMH       0.050200
     51 H132        -0.9360    -0.3180    -2.3370 hc         1 XMH       0.050200
     52 H16          3.3350    -1.5540    -0.5710 h1         1 XMH       0.069700
     53 H171         2.8820    -0.7000     1.6500 h1         1 XMH       0.071700
     54 H172         1.3040    -0.0570     1.1470 h1         1 XMH       0.071700
     55 H191         1.4910    -3.2190    -1.2200 h1         1 XMH       0.049200
     56 H192        -0.0560    -2.5260    -1.7180 h1         1 XMH       0.049200
     57 H201        -0.1150    -3.4080     0.5760 h1         1 XMH       0.065200
     58 H202        -0.4870    -1.6720     0.5130 h1         1 XMH       0.065200
     59 H23          1.4380    -0.1160     4.2380 ha         1 XMH       0.155000
     60 H26         -3.3290    -1.4420     3.8360 ha         1 XMH       0.140000
     61 H27         -1.5820    -2.9080     2.9600 ha         1 XMH       0.153000
     62 H30          0.7690     1.9600     5.3780 ha         1 XMH       0.142000
     63 H31         -4.0000     0.6420     4.9780 ha         1 XMH       0.153000
     64 H32         -0.9930     3.4190     6.2680 ha         1 XMH       0.153000
     65 H361         4.5650     2.5930     0.1450 h1         1 XMH       0.048700
     66 H362         4.9090     2.2880    -1.5610 h1         1 XMH       0.048700
     67 H371         7.0100     2.6250    -0.3010 hc         1 XMH       0.049700
     68 H372         6.6140     1.3040     0.7960 hc         1 XMH       0.049700
     69 H373         6.9510     0.9740    -0.9120 hc         1 XMH       0.049700
     70 S14          1.2920    -2.6170     2.8380 sy         1 XMH       1.296200
     71 CL29        -3.8140     3.1470     6.3040 cl         1 XMH      -0.098400
@<TRIPOS>BOND
     1     1     9 1   
     2     1    20 1   
     3     1    37 1   
     4     1    38 1   
     5     2     5 ar  
     6     2    11 ar  
     7     2    39 1   
     8     3     4 1   
     9     3     6 1   
    10     3     8 1   
    11     4     5 ar  
    12     4     7 ar  
    13     5    40 1   
    14     6    10 1   
    15     6    41 1   
    16     6    42 1   
    17     7    12 ar  
    18     7    43 1   
    19     8    13 1   
    20     8    44 1   
    21     8    45 1   
    22     9    10 1   
    23     9    13 1   
    24     9    46 1   
    25    10    47 1   
    26    10    48 1   
    27    11    12 ar  
    28    12    49 1   
    29    13    50 1   
    30    13    51 1   
    31    14    70 2   
    32    15    16 1   
    33    15    20 1   
    34    15    32 1   
    35    15    52 1   
    36    16    17 1   
    37    16    53 1   
    38    16    54 1   
    39    17    19 1   
    40    17    70 1   
    41    18    19 1   
    42    18    20 1   
    43    18    55 1   
    44    18    56 1   
    45    19    57 1   
    46    19    58 1   
    47    21    70 2   
    48    22    23 ar  
    49    22    27 ar  
    50    22    59 1   
    51    23    26 ar  
    52    23    70 1   
    53    24    25 ar  
    54    24    27 ar  
    55    24    29 ar  
    56    25    26 ar  
    57    25    60 1   
    58    26    61 1   
    59    27    28 ar  
    60    28    30 ar  
    61    28    62 1   
    62    29    31 ar  
    63    29    63 1   
    64    30    31 ar  
    65    30    64 1   
    66    31    71 1   
    67    32    33 1   
    68    32    36 2   
    69    33    34 1   
    70    34    35 1   
    71    34    65 1   
    72    34    66 1   
    73    35    67 1   
    74    35    68 1   
    75    35    69 1   
@<TRIPOS>SUBSTRUCTURE
     1 XMH         1 TEMP              0 ****  ****    0 ROOT
