@<TRIPOS>MOLECULE
XMH
   71    75     1     0     0
SMALL
No Charge or Current Charge


@<TRIPOS>ATOM
      1 C1           1.5680    -1.0660    -2.9240 c3         1 XMH       0.182800
      2 C2          -3.1320    -0.2640    -9.1720 ca         1 XMH       0.363900
      3 N3          -0.9080     0.3510    -6.2720 nh         1 XMH      -0.808400
      4 C4          -1.6350     0.5510    -7.4650 ca         1 XMH       0.368000
      5 C5          -2.4160    -0.4820    -7.9910 ca         1 XMH      -0.244500
      6 C6           0.3540     1.0960    -6.0010 c6         1 XMH       0.215800
      7 C7          -1.6030     1.7690    -8.1540 ca         1 XMH      -0.244500
      8 C8          -1.6200    -0.0880    -5.0400 c6         1 XMH       0.215800
      9 C9           0.6160    -0.1930    -3.7970 c6         1 XMH      -0.062700
     10 C10          1.3080     0.2630    -5.1090 c6         1 XMH      -0.081400
     11 N11         -3.1070     0.9110    -9.8380 nb         1 XMH      -0.697000
     12 C12         -2.3500     1.9060    -9.3280 ca         1 XMH       0.363900
     13 C13         -0.6970    -0.9470    -4.1450 c6         1 XMH      -0.081400
     14 O15         -1.2530    -2.8850     2.4970 o          1 XMH      -0.530500
     15 C16          1.4050    -0.4930    -0.4470 c6         1 XMH       0.136500
     16 C17          0.6610    -0.9140     0.8640 c6         1 XMH       0.191800
     17 N18          0.9000    -2.3400     1.2420 n3         1 XMH      -0.715500
     18 C19          1.3070    -2.8360    -1.2080 c6         1 XMH       0.173800
     19 C20          0.5820    -3.2470     0.1050 c6         1 XMH       0.186800
     20 N21          1.0150    -1.4220    -1.5920 n3         1 XMH      -0.727600
     21 O22          0.9680    -4.0000     3.1540 o          1 XMH      -0.530500
     22 C23          1.8740    -1.3870     4.4050 ca         1 XMH       0.022000
     23 C24          0.5920    -1.4640     3.8210 ca         1 XMH      -0.303500
     24 C25          1.2330     0.6840     5.5320 ca         1 XMH       0.010000
     25 C26         -0.0430     0.6070     4.9440 ca         1 XMH      -0.108000
     26 C27         -0.3660    -0.4630     4.0930 ca         1 XMH      -0.036000
     27 C28          2.1950    -0.3170     5.2630 ca         1 XMH      -0.068000
     28 C30          3.4720    -0.2400     5.8550 ca         1 XMH      -0.074000
     29 C31          1.5540     1.7550     6.3880 ca         1 XMH      -0.105000
     30 C32          3.7860     0.8310     6.7130 ca         1 XMH      -0.107000
     31 C33          2.8280     1.8250     6.9760 ca         1 XMH       0.140000
     32 C34          1.2620     1.0530    -0.6770 c          1 XMH       0.583100
     33 O35          0.2420     1.6460     0.0330 os         1 XMH      -0.449100
     34 C36          0.0400     3.0610    -0.1120 c3         1 XMH       0.166600
     35 C37         -1.0980     3.4580     0.8410 c3         1 XMH      -0.098100
     36 O38          2.0000     1.6790    -1.4310 o          1 XMH      -0.469000
     37 H11          2.5310    -0.5500    -2.8100 h1         1 XMH       0.035200
     38 H12A         1.7750    -1.9780    -3.5020 h1         1 XMH       0.035200
     39 H2          -3.7460    -1.0540    -9.6030 h4         1 XMH       0.011100
     40 H5          -2.4640    -1.4480    -7.5010 ha         1 XMH       0.117500
     41 H61          0.1290     2.0510    -5.5030 h1         1 XMH       0.043700
     42 H62          0.8730     1.3280    -6.9430 h1         1 XMH       0.043700
     43 H7          -1.0230     2.6090    -7.7880 ha         1 XMH       0.117500
     44 H81         -1.9590     0.7910    -4.4720 h1         1 XMH       0.043700
     45 H82         -2.5150    -0.6770    -5.2890 h1         1 XMH       0.043700
     46 H9           0.3550     0.6990    -3.2170 hc         1 XMH       0.073700
     47 H101         2.2010     0.8590    -4.8770 hc         1 XMH       0.050200
     48 H102         1.6550    -0.6140    -5.6730 hc         1 XMH       0.050200
     49 H12         -2.3480     2.8450    -9.8800 h4         1 XMH       0.011100
     50 H131        -0.4640    -1.8880    -4.6610 hc         1 XMH       0.050200
     51 H132        -1.2350    -1.2190    -3.2270 hc         1 XMH       0.050200
     52 H16          2.4780    -0.6200    -0.2460 h1         1 XMH       0.069700
     53 H171         1.0040    -0.2400     1.6610 h1         1 XMH       0.071700
     54 H172        -0.4170    -0.7360     0.7310 h1         1 XMH       0.071700
     55 H191         2.3900    -2.9800    -1.0750 h1         1 XMH       0.049200
     56 H192         0.9860    -3.5220    -2.0060 h1         1 XMH       0.049200
     57 H201         0.8670    -4.2820     0.3460 h1         1 XMH       0.065200
     58 H202        -0.5010    -3.2500    -0.0900 h1         1 XMH       0.065200
     59 H23          2.6190    -2.1530     4.1930 ha         1 XMH       0.137000
     60 H26         -0.7880     1.3750     5.1450 ha         1 XMH       0.122000
     61 H27         -1.3590    -0.5060     3.6450 ha         1 XMH       0.135000
     62 H30          4.2190    -1.0070     5.6570 ha         1 XMH       0.124000
     63 H31          0.8210     2.5300     6.5990 ha         1 XMH       0.135000
     64 H32          4.7700     0.8890     7.1730 ha         1 XMH       0.135000
     65 H361        -0.2370     3.3140    -1.1450 h1         1 XMH       0.048700
     66 H362         0.9490     3.6170     0.1550 h1         1 XMH       0.048700
     67 H371        -1.2980     4.5350     0.7690 hc         1 XMH       0.049700
     68 H372        -2.0200     2.9190     0.5880 hc         1 XMH       0.049700
     69 H373        -0.8290     3.2280     1.8800 hc         1 XMH       0.049700
     70 S14          0.1970    -2.8320     2.7130 sy         1 XMH       1.154600
     71 Cl29         3.2230     3.1630     8.0490 cl         1 XMH      -0.190000
@<TRIPOS>BOND
     1     1     9 1   
     2     1    20 1   
     3     1    37 1   
     4     1    38 1   
     5     2     5 ar  
     6     2    11 ar  
     7     2    39 1   
     8     3     4 1   
     9     3     6 1   
    10     3     8 1   
    11     4     5 ar  
    12     4     7 ar  
    13     5    40 1   
    14     6    10 1   
    15     6    41 1   
    16     6    42 1   
    17     7    12 ar  
    18     7    43 1   
    19     8    13 1   
    20     8    44 1   
    21     8    45 1   
    22     9    10 1   
    23     9    13 1   
    24     9    46 1   
    25    10    47 1   
    26    10    48 1   
    27    11    12 ar  
    28    12    49 1   
    29    13    50 1   
    30    13    51 1   
    31    14    70 2   
    32    15    16 1   
    33    15    20 1   
    34    15    32 1   
    35    15    52 1   
    36    16    17 1   
    37    16    53 1   
    38    16    54 1   
    39    17    19 1   
    40    17    70 1   
    41    18    19 1   
    42    18    20 1   
    43    18    55 1   
    44    18    56 1   
    45    19    57 1   
    46    19    58 1   
    47    21    70 2   
    48    22    23 ar  
    49    22    27 ar  
    50    22    59 1   
    51    23    26 ar  
    52    23    70 1   
    53    24    25 ar  
    54    24    27 ar  
    55    24    29 ar  
    56    25    26 ar  
    57    25    60 1   
    58    26    61 1   
    59    27    28 ar  
    60    28    30 ar  
    61    28    62 1   
    62    29    31 ar  
    63    29    63 1   
    64    30    31 ar  
    65    30    64 1   
    66    31    71 1   
    67    32    33 1   
    68    32    36 2   
    69    33    34 1   
    70    34    35 1   
    71    34    65 1   
    72    34    66 1   
    73    35    67 1   
    74    35    68 1   
    75    35    69 1   
@<TRIPOS>SUBSTRUCTURE
     1 XMH         1 TEMP              0 ****  ****    0 ROOT
