@<TRIPOS>MOLECULE
XMK
   60    63     1     0     0
SMALL
abcg2


@<TRIPOS>ATOM
      1 C1           2.4700    -0.3940     2.7700 c3         1 XMK       0.174800
      2 C2          -2.6680    -0.2240     8.6630 ca         1 XMK       0.364400
      3 N3          -0.8820     0.0460     5.4600 nh         1 XMK      -0.810400
      4 C4          -1.8810    -0.0610     6.3850 ca         1 XMK       0.368000
      5 C5          -1.6270    -0.0670     7.7720 ca         1 XMK      -0.244500
      6 C6          -1.1820     0.0080     4.0380 c6         1 XMK       0.215800
      7 C7          -3.2370    -0.2070     6.0330 ca         1 XMK      -0.244500
      8 C8           0.3440     0.7690     5.7710 c6         1 XMK       0.215800
      9 C9           1.2870     0.2100     3.5170 c6         1 XMK      -0.059700
     10 C10         -0.0080    -0.5380     3.2360 c6         1 XMK      -0.082900
     11 N11         -3.9480    -0.3700     8.3250 nb         1 XMK      -0.695000
     12 C12         -4.1940    -0.3570     7.0190 ca         1 XMK       0.364400
     13 C13          1.5370     0.2030     5.0190 c6         1 XMK      -0.082900
     14 C14          0.7240     0.4910    -4.1490 ce         1 XMK       0.016800
     15 C15          1.5720    -0.4240    -3.6780 cf         1 XMK      -0.456100
     16 C16         -1.3800     1.3250    -5.0890 ca         1 XMK      -0.066500
     17 C18         -0.6080     0.2340    -4.6870 ca         1 XMK      -0.100800
     18 O20          4.1010    -0.9690    -3.4610 o          1 XMK      -0.536000
     19 C21          3.2130    -1.3190     0.6770 c6         1 XMK       0.166300
     20 C22          2.9170    -1.4080    -0.8070 c6         1 XMK       0.190300
     21 N23          3.0250    -0.0690    -1.3910 n3         1 XMK      -0.714500
     22 C24         -1.1470    -1.0480    -4.8180 ca         1 XMK      -0.066500
     23 C25          2.4330     0.9170     0.7460 c6         1 XMK       0.166300
     24 C26          2.1310     0.8890    -0.7390 c6         1 XMK       0.190300
     25 C27         -2.6550     1.1540    -5.6040 ca         1 XMK      -0.112500
     26 N28          2.3010    -0.4020     1.3290 n3         1 XMK      -0.726600
     27 C29         -2.4160    -1.2360    -5.3310 ca         1 XMK      -0.112500
     28 C30         -3.1620    -0.1300    -5.7200 ca         1 XMK       0.140000
     29 O31          3.3860     1.4350    -3.3530 o          1 XMK      -0.536000
     30 H11          2.5860    -1.4320     3.0990 h1         1 XMK       0.035700
     31 H12A         3.3960     0.1290     3.0670 h1         1 XMK       0.035700
     32 H2          -2.4460    -0.2340     9.7260 h4         1 XMK       0.011600
     33 H5          -0.6290     0.0260     8.1730 ha         1 XMK       0.118000
     34 H61         -1.4510     1.0110     3.6750 h1         1 XMK       0.042700
     35 H62         -2.0370    -0.6400     3.8610 h1         1 XMK       0.042700
     36 H7          -3.5690    -0.1890     5.0060 ha         1 XMK       0.118000
     37 H81          0.2170     1.8290     5.5060 h1         1 XMK       0.042700
     38 H82          0.5460     0.7360     6.8370 h1         1 XMK       0.042700
     39 H9           1.1560     1.2570     3.2130 hc         1 XMK       0.047700
     40 H101        -0.2580    -0.4890     2.1750 hc         1 XMK       0.054200
     41 H102         0.1310    -1.5960     3.4830 hc         1 XMK       0.054200
     42 H12         -5.2320    -0.4630     6.7220 h4         1 XMK       0.011600
     43 H131         1.7260    -0.8200     5.3610 hc         1 XMK       0.054200
     44 H132         2.4190     0.7970     5.2690 hc         1 XMK       0.054200
     45 H14          1.0270     1.5330    -4.1480 ha         1 XMK       0.196000
     46 H15          1.3660    -1.4870    -3.6300 h4         1 XMK       0.218000
     47 H16         -0.9820     2.3280    -4.9970 ha         1 XMK       0.123500
     48 H211         3.0900    -2.3160     1.1060 h1         1 XMK       0.045200
     49 H212         4.2680    -1.0280     0.8160 h1         1 XMK       0.045200
     50 H221         1.9120    -1.8210    -0.9550 h1         1 XMK       0.060450
     51 H222         3.6380    -2.0750    -1.2760 h1         1 XMK       0.060450
     52 H24         -0.5780    -1.9200    -4.5230 ha         1 XMK       0.123500
     53 H251         1.7260     1.6060     1.2100 h1         1 XMK       0.045200
     54 H252         3.4430     1.3330     0.9050 h1         1 XMK       0.045200
     55 H261         2.2920     1.8840    -1.1480 h1         1 XMK       0.060450
     56 H262         1.0810     0.6130    -0.8950 h1         1 XMK       0.060450
     57 H27         -3.2410     2.0100    -5.9080 ha         1 XMK       0.135000
     58 H29         -2.8210    -2.2330    -5.4300 ha         1 XMK       0.135000
     59 S17          3.1400     0.0370    -3.0370 sy         1 XMK       1.141200
     60 CL19        -4.7510    -0.3630    -6.3610 cl         1 XMK      -0.190000
@<TRIPOS>BOND
     1     1     9 1   
     2     1    26 1   
     3     1    30 1   
     4     1    31 1   
     5     2     5 ar  
     6     2    11 ar  
     7     2    32 1   
     8     3     4 1   
     9     3     6 1   
    10     3     8 1   
    11     4     5 ar  
    12     4     7 ar  
    13     5    33 1   
    14     6    10 1   
    15     6    34 1   
    16     6    35 1   
    17     7    12 ar  
    18     7    36 1   
    19     8    13 1   
    20     8    37 1   
    21     8    38 1   
    22     9    10 1   
    23     9    13 1   
    24     9    39 1   
    25    10    40 1   
    26    10    41 1   
    27    11    12 ar  
    28    12    42 1   
    29    13    43 1   
    30    13    44 1   
    31    14    15 2   
    32    14    17 1   
    33    14    45 1   
    34    15    46 1   
    35    15    59 1   
    36    16    17 ar  
    37    16    25 ar  
    38    16    47 1   
    39    17    22 ar  
    40    18    59 2   
    41    19    20 1   
    42    19    26 1   
    43    19    48 1   
    44    19    49 1   
    45    20    21 1   
    46    20    50 1   
    47    20    51 1   
    48    21    24 1   
    49    21    59 1   
    50    22    27 ar  
    51    22    52 1   
    52    23    24 1   
    53    23    26 1   
    54    23    53 1   
    55    23    54 1   
    56    24    55 1   
    57    24    56 1   
    58    25    28 ar  
    59    25    57 1   
    60    27    28 ar  
    61    27    58 1   
    62    28    60 1   
    63    29    59 2   
@<TRIPOS>SUBSTRUCTURE
     1 XMK         1 TEMP              0 ****  ****    0 ROOT
