@<TRIPOS>MOLECULE
XMK
   60    63     1     0     0
SMALL
No Charge or Current Charge


@<TRIPOS>ATOM
      1 C1           2.4320    -0.5850     2.6470 c3         1 XMK       0.174800
      2 C2          -3.0390    -0.6930     8.3260 ca         1 XMK       0.364400
      3 N3          -0.9910     0.0990     5.3390 nh         1 XMK      -0.810400
      4 C4          -2.0680     0.0630     6.2510 ca         1 XMK       0.368000
      5 C5          -1.9600    -0.6680     7.4380 ca         1 XMK      -0.244500
      6 C6          -1.2250     0.3070     3.8820 c6         1 XMK       0.215800
      7 C7          -3.2660     0.7440     6.0050 ca         1 XMK      -0.244500
      8 C8           0.3510     0.5520     5.8010 c6         1 XMK       0.215800
      9 C9           1.2990     0.1110     3.4630 c6         1 XMK      -0.059700
     10 C10         -0.1170    -0.3660     3.0370 c6         1 XMK      -0.082900
     11 N11         -4.1960    -0.0360     8.0940 nb         1 XMK      -0.695000
     12 C12         -4.2980     0.6690     6.9470 ca         1 XMK       0.364400
     13 C13          1.4780    -0.1250     4.9860 c6         1 XMK      -0.082900
     14 C14          0.7060     0.5290    -3.9030 ce         1 XMK       0.016800
     15 C15          1.8220    -0.2370    -3.7340 cf         1 XMK      -0.456100
     16 C16         -1.6850     1.0540    -4.4520 ca         1 XMK      -0.066500
     17 C18         -0.6650     0.0920    -4.2990 ca         1 XMK      -0.100800
     18 O20          4.4360    -0.5400    -3.7440 o          1 XMK      -0.536000
     19 C21          3.3510    -1.3060     0.4670 c6         1 XMK       0.166300
     20 C22          3.2390    -1.2030    -1.0850 c6         1 XMK       0.190300
     21 N23          3.3630     0.2040    -1.5680 n3         1 XMK      -0.714500
     22 C24         -0.9660    -1.2690    -4.5210 ca         1 XMK      -0.066500
     23 C25          2.4710     0.9640     0.6820 c6         1 XMK       0.166300
     24 C26          2.3640     1.0650    -0.8710 c6         1 XMK       0.190300
     25 C27         -2.9840     0.6620    -4.8210 ca         1 XMK      -0.112500
     26 N28          2.3510    -0.4460     1.1710 n3         1 XMK      -0.726600
     27 C29         -2.2660    -1.6580    -4.8910 ca         1 XMK      -0.112500
     28 C30         -3.2730    -0.6930    -5.0410 ca         1 XMK       0.140000
     29 O31          3.4690     1.8120    -3.5320 o          1 XMK      -0.536000
     30 H11          2.4080    -1.6520     2.9070 h1         1 XMK       0.035700
     31 H12A         3.3960    -0.1940     3.0010 h1         1 XMK       0.035700
     32 H2          -2.9800    -1.2590     9.2560 h4         1 XMK       0.011600
     33 H5          -1.0580    -1.2230     7.6690 ha         1 XMK       0.118000
     34 H61         -1.2530     1.3830     3.6550 h1         1 XMK       0.042700
     35 H62         -2.1940    -0.1200     3.5840 h1         1 XMK       0.042700
     36 H7          -3.4060     1.3360     5.1080 ha         1 XMK       0.118000
     37 H81          0.4320     1.6440     5.6930 h1         1 XMK       0.042700
     38 H82          0.5000     0.3210     6.8660 h1         1 XMK       0.042700
     39 H9           1.3800     1.1910     3.2790 hc         1 XMK       0.047700
     40 H101        -0.2910    -0.1460     1.9750 hc         1 XMK       0.054200
     41 H102        -0.1900    -1.4570     3.1450 hc         1 XMK       0.054200
     42 H12         -5.2390     1.1930     6.7820 h4         1 XMK       0.011600
     43 H131         1.4820    -1.2030     5.2010 hc         1 XMK       0.054200
     44 H132         2.4500     0.2630     5.3170 hc         1 XMK       0.054200
     45 H14          0.7940     1.6060    -3.7340 ha         1 XMK       0.196000
     46 H15          1.8440    -1.3150    -3.8870 h4         1 XMK       0.218000
     47 H16         -1.4750     2.1080    -4.2850 ha         1 XMK       0.123500
     48 H211         3.2180    -2.3590     0.7560 h1         1 XMK       0.045200
     49 H212         4.3710    -1.0180     0.7620 h1         1 XMK       0.045200
     50 H221         2.2720    -1.6300    -1.3900 h1         1 XMK       0.060450
     51 H222         4.0230    -1.8360    -1.5240 h1         1 XMK       0.060450
     52 H24         -0.2010    -2.0330    -4.4090 ha         1 XMK       0.123500
     53 H251         1.6820     1.5950     1.1140 h1         1 XMK       0.045200
     54 H252         3.4340     1.3930     0.9950 h1         1 XMK       0.045200
     55 H261         2.4960     2.1200    -1.1510 h1         1 XMK       0.060450
     56 H262         1.3420     0.7810    -1.1620 h1         1 XMK       0.060450
     57 H27         -3.7660     1.4090    -4.9380 ha         1 XMK       0.135000
     58 H29         -2.4930    -2.7080    -5.0600 ha         1 XMK       0.135000
     59 S17          3.3970     0.3730    -3.2590 sy         1 XMK       1.141200
     60 Cl19        -4.8980    -1.1820    -5.5030 cl         1 XMK      -0.190000
@<TRIPOS>BOND
     1     1     9 1   
     2     1    26 1   
     3     1    30 1   
     4     1    31 1   
     5     2     5 ar  
     6     2    11 ar  
     7     2    32 1   
     8     3     4 1   
     9     3     6 1   
    10     3     8 1   
    11     4     5 ar  
    12     4     7 ar  
    13     5    33 1   
    14     6    10 1   
    15     6    34 1   
    16     6    35 1   
    17     7    12 ar  
    18     7    36 1   
    19     8    13 1   
    20     8    37 1   
    21     8    38 1   
    22     9    10 1   
    23     9    13 1   
    24     9    39 1   
    25    10    40 1   
    26    10    41 1   
    27    11    12 ar  
    28    12    42 1   
    29    13    43 1   
    30    13    44 1   
    31    14    15 2   
    32    14    17 1   
    33    14    45 1   
    34    15    46 1   
    35    15    59 1   
    36    16    17 ar  
    37    16    25 ar  
    38    16    47 1   
    39    17    22 ar  
    40    18    59 2   
    41    19    20 1   
    42    19    26 1   
    43    19    48 1   
    44    19    49 1   
    45    20    21 1   
    46    20    50 1   
    47    20    51 1   
    48    21    24 1   
    49    21    59 1   
    50    22    27 ar  
    51    22    52 1   
    52    23    24 1   
    53    23    26 1   
    54    23    53 1   
    55    23    54 1   
    56    24    55 1   
    57    24    56 1   
    58    25    28 ar  
    59    25    57 1   
    60    27    28 ar  
    61    27    58 1   
    62    28    60 1   
    63    29    59 2   
@<TRIPOS>SUBSTRUCTURE
     1 XMK         1 TEMP              0 ****  ****    0 ROOT
