@<TRIPOS>MOLECULE
XML
   34    36     1     0     0
SMALL
abcg2


@<TRIPOS>ATOM
      1 N1         -25.0060   -42.9810   -27.5570 nb         1 XML      -0.754000
      2 N3         -21.9680   -46.0900   -28.0080 nc         1 XML      -0.715000
      3 C4         -24.3250   -44.6530   -25.4630 ca         1 XML      -0.030000
      4 C5         -23.7320   -44.8590   -26.7020 ca         1 XML      -0.236500
      5 C6         -22.7790   -45.9560   -26.8880 cc         1 XML       0.323500
      6 C7         -23.8620   -43.1670   -30.0730 c3         1 XML       0.294100
      7 C8         -23.1080   -41.8530   -29.9820 ca         1 XML      -0.136300
      8 C10        -21.4120   -40.4190   -28.9850 ca         1 XML      -0.180000
      9 C13        -23.4330   -40.8160   -30.8660 ca         1 XML       0.160100
     10 C15        -22.5130   -47.0010   -26.0250 cd         1 XML      -0.221000
     11 C1         -24.1160   -43.9660   -27.7520 ca         1 XML       0.640900
     12 C2         -25.5580   -42.8300   -26.3510 ca         1 XML       0.393900
     13 C3         -25.2540   -43.6350   -25.2680 ca         1 XML      -0.238000
     14 N2         -23.5970   -44.0980   -29.0040 nu         1 XML      -0.938100
     15 C9         -22.0960   -41.6310   -29.0570 ca         1 XML      -0.044000
     16 C11        -21.7740   -39.4260   -29.8730 ca         1 XML       0.197000
     17 C12        -22.7690   -39.5930   -30.8180 ca         1 XML      -0.242000
     18 F          -21.1340   -38.2280   -29.8250 f          1 XML      -0.186000
     19 O          -24.4240   -41.0570   -31.7720 oh         1 XML      -0.538100
     20 C14        -21.2410   -47.1720   -27.8170 cd         1 XML       0.408400
     21 N4         -21.5390   -47.7500   -26.6310 na         1 XML      -0.302500
     22 H2         -24.0530   -45.2930   -24.6330 ha         1 XML       0.106000
     23 H3         -24.9310   -42.9580   -30.1160 h1         1 XML       0.068700
     24 H4         -23.6040   -43.6670   -31.0100 h1         1 XML       0.068700
     25 H5         -20.6280   -40.2490   -28.2600 ha         1 XML       0.133000
     26 H6         -22.9240   -47.2730   -25.0690 h4         1 XML       0.160000
     27 H7         -26.2730   -42.0190   -26.2540 h4         1 XML       0.015100
     28 H8         -25.7140   -43.4700   -24.3040 ha         1 XML       0.121000
     29 H9         -22.8340   -44.7580   -29.0980 hn         1 XML       0.532000
     30 H10        -21.8370   -42.4240   -28.3680 ha         1 XML       0.127000
     31 H11        -23.0230   -38.7910   -31.5000 ha         1 XML       0.130000
     32 H12        -24.5750   -40.2760   -32.3210 ho         1 XML       0.465000
     33 H13        -20.5040   -47.5710   -28.4940 h5         1 XML       0.059100
     34 H1         -21.1230   -48.5900   -26.2590 hn         1 XML       0.355000
@<TRIPOS>BOND
     1     1    11 ar  
     2     1    12 ar  
     3     2     5 1   
     4     2    20 2   
     5     3     4 ar  
     6     3    13 ar  
     7     3    22 1   
     8     4     5 1   
     9     4    11 ar  
    10     5    10 2   
    11     6     7 1   
    12     6    14 1   
    13     6    23 1   
    14     6    24 1   
    15     7     9 ar  
    16     7    15 ar  
    17     8    15 ar  
    18     8    16 ar  
    19     8    25 1   
    20     9    17 ar  
    21     9    19 1   
    22    10    21 1   
    23    10    26 1   
    24    11    14 1   
    25    12    13 ar  
    26    12    27 1   
    27    13    28 1   
    28    14    29 1   
    29    15    30 1   
    30    16    17 ar  
    31    16    18 1   
    32    17    31 1   
    33    19    32 1   
    34    20    21 1   
    35    20    33 1   
    36    21    34 1   
@<TRIPOS>SUBSTRUCTURE
     1 XML         1 TEMP              0 ****  ****    0 ROOT
