@<TRIPOS>MOLECULE
XML
   34    36     1     0     0
SMALL
No Charge or Current Charge


@<TRIPOS>ATOM
      1 N1         -25.4770   -43.2390   -27.9200 nb         1 XML      -0.754000
      2 N3         -21.9150   -45.7880   -28.0420 nc         1 XML      -0.715000
      3 C4         -24.3760   -44.3480   -25.5760 ca         1 XML      -0.030000
      4 C5         -23.8500   -44.6950   -26.8400 ca         1 XML      -0.236500
      5 C6         -22.7090   -45.6180   -26.9440 cc         1 XML       0.323500
      6 C7         -23.9990   -43.3770   -30.3720 c3         1 XML       0.294100
      7 C8         -23.1150   -42.1530   -30.1000 ca         1 XML      -0.136300
      8 C10        -20.9930   -41.2120   -29.3290 ca         1 XML      -0.180000
      9 C13        -23.5700   -40.8440   -30.3860 ca         1 XML       0.160100
     10 C15        -22.3490   -46.4450   -25.9160 cd         1 XML      -0.221000
     11 C1         -24.4380   -44.0820   -27.9700 ca         1 XML       0.640900
     12 C2         -25.9780   -42.9330   -26.7080 ca         1 XML       0.393900
     13 C3         -25.4560   -43.4570   -25.5190 ca         1 XML      -0.238000
     14 N2         -23.9900   -44.3250   -29.2440 nu         1 XML      -0.938100
     15 C9         -21.8120   -42.3250   -29.5800 ca         1 XML      -0.044000
     16 C11        -21.4640   -39.9220   -29.6030 ca         1 XML       0.197000
     17 C12        -22.7470   -39.7350   -30.1340 ca         1 XML      -0.242000
     18 F          -20.6750   -38.8530   -29.3630 f          1 XML      -0.186000
     19 O          -24.8050   -40.6310   -30.9240 oh         1 XML      -0.538100
     20 C14        -21.0300   -46.7190   -27.7060 cd         1 XML       0.408400
     21 N4         -21.2600   -47.1500   -26.4120 na         1 XML      -0.302500
     22 H2         -23.9640   -44.7450   -24.6520 ha         1 XML       0.106000
     23 H3         -25.0320   -43.0690   -30.5870 h1         1 XML       0.068700
     24 H4         -23.6260   -43.8750   -31.2780 h1         1 XML       0.068700
     25 H5         -19.9930   -41.3490   -28.9240 ha         1 XML       0.133000
     26 H6         -22.7620   -46.5910   -24.9250 h4         1 XML       0.160000
     27 H7         -26.8200   -42.2420   -26.6890 h4         1 XML       0.015100
     28 H8         -25.8890   -43.1700   -24.5650 ha         1 XML       0.121000
     29 H9         -23.1660   -44.9330   -29.1860 hn         1 XML       0.532000
     30 H10        -21.4300   -43.3220   -29.3690 ha         1 XML       0.127000
     31 H11        -23.0900   -38.7270   -30.3490 ha         1 XML       0.130000
     32 H12        -24.9310   -39.6650   -31.0350 ho         1 XML       0.465000
     33 H13        -20.2320   -47.1190   -28.3220 h5         1 XML       0.059100
     34 H1         -20.7200   -47.8610   -25.9320 hn         1 XML       0.355000
@<TRIPOS>BOND
     1     1    11 ar  
     2     1    12 ar  
     3     2     5 1   
     4     2    20 2   
     5     3     4 ar  
     6     3    13 ar  
     7     3    22 1   
     8     4     5 1   
     9     4    11 ar  
    10     5    10 2   
    11     6     7 1   
    12     6    14 1   
    13     6    23 1   
    14     6    24 1   
    15     7     9 ar  
    16     7    15 ar  
    17     8    15 ar  
    18     8    16 ar  
    19     8    25 1   
    20     9    17 ar  
    21     9    19 1   
    22    10    21 1   
    23    10    26 1   
    24    11    14 1   
    25    12    13 ar  
    26    12    27 1   
    27    13    28 1   
    28    14    29 1   
    29    15    30 1   
    30    16    17 ar  
    31    16    18 1   
    32    17    31 1   
    33    19    32 1   
    34    20    21 1   
    35    20    33 1   
    36    21    34 1   
@<TRIPOS>SUBSTRUCTURE
     1 XML         1 TEMP              0 ****  ****    0 ROOT
