@<TRIPOS>MOLECULE
XMM
   38    40     1     0     0
SMALL
No Charge or Current Charge


@<TRIPOS>ATOM
      1 O2          -4.7090     0.5680    -1.8890 oh         1 XMM      -0.693000
      2 C2          -3.3180     0.7980    -1.5360 c6         1 XMM       0.125300
      3 C3          -3.2590     1.7560    -0.3080 c6         1 XMM       0.142300
      4 O3          -4.0230     2.9450    -0.5800 oh         1 XMM      -0.653000
      5 C4          -3.8070     1.0460     0.9700 c6         1 XMM       0.148300
      6 O4          -3.7010     1.9330     2.1030 oh         1 XMM      -0.725000
      7 C5          -3.0450    -0.2970     1.2010 c6         1 XMM       0.168300
      8 O5          -3.1190    -1.1280     0.0090 os         1 XMM      -0.448000
      9 C6          -3.6300    -1.1080     2.4050 c3         1 XMM       0.169600
     10 O6          -2.9830    -2.3820     2.6140 oh         1 XMM      -0.726000
     11 C1          -2.5520    -0.5260    -1.1820 c6         1 XMM       0.347300
     12 O1          -1.1480    -0.2560    -0.9770 os         1 XMM      -0.351100
     13 C7          -0.2440    -1.2720    -0.7970 cc         1 XMM       0.039900
     14 C8           1.1570    -1.1130    -0.5900 ca         1 XMM      -0.109800
     15 C9           1.6410    -2.3910    -0.4750 ca         1 XMM      -0.032200
     16 N1           0.6240    -3.3390    -0.5970 na         1 XMM      -0.209700
     17 C11         -0.5820    -2.6150    -0.8020 cd         1 XMM      -0.153100
     18 C10          1.9840     0.0190    -0.4940 ca         1 XMM       0.197000
     19 Cl           1.3260     1.6530    -0.6360 cl         1 XMM      -0.171000
     20 C13          3.3660    -0.2000    -0.2760 ca         1 XMM      -0.052900
     21 Br           4.5870     1.2730    -0.1300 br         1 XMM      -0.078100
     22 C14          3.8700    -1.5180    -0.1600 ca         1 XMM      -0.063000
     23 C12          3.0050    -2.6280    -0.2590 ca         1 XMM      -0.124000
     24 HO2         -4.7240     0.0080    -2.7010 ho         1 XMM       0.505000
     25 H2          -2.7940     1.2790    -2.3760 h1         1 XMM       0.054700
     26 H3          -2.2060     2.0230    -0.1300 h1         1 XMM       0.062700
     27 HO3         -4.7530     2.6360    -1.1660 ho         1 XMM       0.449000
     28 H4          -4.8650     0.7990     0.7950 h1         1 XMM       0.069700
     29 HO4         -3.9270     2.8280     1.7500 ho         1 XMM       0.523000
     30 H5          -1.9900    -0.0820     1.4230 h1         1 XMM       0.065700
     31 H61         -4.7040    -1.2580     2.2230 h1         1 XMM       0.039200
     32 H62         -3.5390    -0.4920     3.3100 h1         1 XMM       0.039200
     33 HO6         -3.4630    -2.8320     3.3490 ho         1 XMM       0.504000
     34 H1          -2.6580    -1.2240    -2.0260 h2         1 XMM       0.081700
     35 HN1          0.7260    -4.3490    -0.5430 hn         1 XMM       0.358000
     36 H11         -1.5450    -3.1020    -0.9190 h4         1 XMM       0.247000
     37 H14          4.9330    -1.6770     0.0080 ha         1 XMM       0.131000
     38 H12          3.3890    -3.6420    -0.1680 ha         1 XMM       0.122000
@<TRIPOS>BOND
     1     1     2 1   
     2     1    24 1   
     3     2     3 1   
     4     2    11 1   
     5     2    25 1   
     6     3     4 1   
     7     3     5 1   
     8     3    26 1   
     9     4    27 1   
    10     5     6 1   
    11     5     7 1   
    12     5    28 1   
    13     6    29 1   
    14     7     8 1   
    15     7     9 1   
    16     7    30 1   
    17     8    11 1   
    18     9    10 1   
    19     9    31 1   
    20     9    32 1   
    21    10    33 1   
    22    11    12 1   
    23    11    34 1   
    24    12    13 1   
    25    13    14 1   
    26    13    17 2   
    27    14    15 ar  
    28    14    18 ar  
    29    15    16 1   
    30    15    23 ar  
    31    16    17 1   
    32    16    35 1   
    33    17    36 1   
    34    18    19 1   
    35    18    20 ar  
    36    20    21 1   
    37    20    22 ar  
    38    22    23 ar  
    39    22    37 1   
    40    23    38 1   
@<TRIPOS>SUBSTRUCTURE
     1 XMM         1 TEMP              0 ****  ****    0 ROOT
