@<TRIPOS>MOLECULE
XMM
   38    40     1     0     0
SMALL
bcc


@<TRIPOS>ATOM
      1 O2          -3.7860     0.8180    -2.0940 oh         1 XMM      -0.570800
      2 C2          -2.7540     1.0770    -1.1770 c6         1 XMM       0.102100
      3 C3          -3.3660     1.7140     0.0680 c6         1 XMM       0.119100
      4 O3          -4.1280     2.8590    -0.2290 oh         1 XMM      -0.590800
      5 C4          -4.2800     0.7240     0.7810 c6         1 XMM       0.125100
      6 O4          -4.7360     1.2440     2.0060 oh         1 XMM      -0.602800
      7 C5          -3.5040    -0.5580     1.0830 c6         1 XMM       0.145100
      8 O5          -2.9240    -1.0830    -0.1030 os         1 XMM      -0.401600
      9 C6          -4.3870    -1.6420     1.6630 c3         1 XMM       0.146400
     10 O6          -3.5740    -2.7330     2.0290 oh         1 XMM      -0.603800
     11 C1          -2.0660    -0.2330    -0.7860 c6         1 XMM       0.300900
     12 O1          -0.9360     0.1050    -0.0120 os         1 XMM      -0.327900
     13 C7          -0.0240    -0.8820     0.1690 cc         1 XMM       0.039900
     14 C8           1.2530    -0.9570    -0.4670 ca         1 XMM      -0.109800
     15 C9           1.8840    -2.1100     0.0510 ca         1 XMM      -0.032200
     16 N1           1.0240    -2.6910     0.9270 na         1 XMM      -0.159400
     17 C11         -0.1270    -1.9610     1.0030 cd         1 XMM      -0.103100
     18 C10          1.9340    -0.1800    -1.4100 ca         1 XMM       0.105400
     19 CL           1.1690     1.2140    -2.0720 cl         1 XMM      -0.079400
     20 C13          3.2060    -0.5590    -1.7970 ca         1 XMM      -0.052900
     21 BR           4.1630     0.4520    -3.0630 br         1 XMM      -0.078100
     22 C14          3.8180    -1.7050    -1.2600 ca         1 XMM      -0.081000
     23 C12          3.1660    -2.4910    -0.3370 ca         1 XMM      -0.142000
     24 HO2         -3.3960     0.6150    -2.9500 ho         1 XMM       0.406000
     25 H2          -2.0000     1.7520    -1.6040 h1         1 XMM       0.054700
     26 H3          -2.5440     1.9640     0.7520 h1         1 XMM       0.062700
     27 HO3         -3.5340     3.6070    -0.3400 ho         1 XMM       0.410000
     28 H4          -5.1260     0.4770     0.1220 h1         1 XMM       0.069700
     29 HO4         -5.1670     2.0860     1.8260 ho         1 XMM       0.424000
     30 H5          -2.7230    -0.3250     1.8210 h1         1 XMM       0.065700
     31 H61         -5.1440    -1.9290     0.9210 h1         1 XMM       0.039200
     32 H62         -4.9200    -1.2300     2.5260 h1         1 XMM       0.039200
     33 HO6         -4.1180    -3.3680     2.5040 ho         1 XMM       0.405000
     34 H1          -1.7520    -0.7840    -1.6810 h2         1 XMM       0.081700
     35 HN1          1.1980    -3.5390     1.4400 hn         1 XMM       0.307700
     36 H11         -0.9380    -2.2660     1.6440 h4         1 XMM       0.197000
     37 H14          4.8160    -1.9740    -1.5780 ha         1 XMM       0.149000
     38 H12          3.6420    -3.3730     0.0700 ha         1 XMM       0.140000
@<TRIPOS>BOND
     1     1     2 1   
     2     1    24 1   
     3     2     3 1   
     4     2    11 1   
     5     2    25 1   
     6     3     4 1   
     7     3     5 1   
     8     3    26 1   
     9     4    27 1   
    10     5     6 1   
    11     5     7 1   
    12     5    28 1   
    13     6    29 1   
    14     7     8 1   
    15     7     9 1   
    16     7    30 1   
    17     8    11 1   
    18     9    10 1   
    19     9    31 1   
    20     9    32 1   
    21    10    33 1   
    22    11    12 1   
    23    11    34 1   
    24    12    13 1   
    25    13    14 1   
    26    13    17 2   
    27    14    15 ar  
    28    14    18 ar  
    29    15    16 1   
    30    15    23 ar  
    31    16    17 1   
    32    16    35 1   
    33    17    36 1   
    34    18    19 1   
    35    18    20 ar  
    36    20    21 1   
    37    20    22 ar  
    38    22    23 ar  
    39    22    37 1   
    40    23    38 1   
@<TRIPOS>SUBSTRUCTURE
     1 XMM         1 TEMP              0 ****  ****    0 ROOT
