@<TRIPOS>MOLECULE
XMN
   53    55     1     0     0
SMALL
abcg2


@<TRIPOS>ATOM
      1 C11        -22.0960   -11.8060    10.0190 cc         1 XMN      -0.155400
      2 C12        -21.5630   -12.0090     8.6680 ca         1 XMN       0.092200
      3 C13        -21.9560   -13.1070     7.9040 ca         1 XMN      -0.140000
      4 C14        -21.4230   -13.3210     6.6400 ca         1 XMN      -0.093000
      5 C15        -20.4800   -12.4600     6.0910 ca         1 XMN      -0.195300
      6 C16        -19.8770   -12.7180     4.7350 c3         1 XMN       0.160300
      7 C18        -17.4120   -12.7190     4.4840 c          1 XMN       0.578100
      8 C01        -24.8650   -12.1390    14.5250 c3         1 XMN      -0.083100
      9 C03        -22.9150   -12.7800    15.9700 c3         1 XMN      -0.083100
     10 C04        -22.7400   -12.8790    13.4380 ca         1 XMN      -0.086300
     11 C05        -22.6150   -12.2070    12.2120 ca         1 XMN      -0.065200
     12 C07        -22.6300   -10.6660    10.5820 cd         1 XMN      -0.056300
     13 C08        -22.9920    -9.3090    10.0200 c          1 XMN       0.722200
     14 C20        -16.1390   -13.5370     4.7510 c3         1 XMN       0.081500
     15 C22        -16.0410   -14.7070     3.7800 c3         1 XMN       0.165600
     16 C24        -20.0990   -11.3810     6.8770 ca         1 XMN       0.181000
     17 C26        -20.6110   -11.1410     8.1330 ca         1 XMN      -0.115000
     18 C27        -22.0850   -12.8050    11.0490 ca         1 XMN      -0.080800
     19 C28        -21.6550   -14.1370    11.1070 ca         1 XMN      -0.077000
     20 C29        -21.7800   -14.8150    12.3000 ca         1 XMN      -0.158000
     21 C30        -22.3140   -14.1950    13.4440 ca         1 XMN      -0.118000
     22 F25        -19.1820   -10.5240     6.3930 f          1 XMN      -0.183000
     23 N06        -22.9300   -10.9230    11.8890 na         1 XMN      -0.194700
     24 N17        -18.5660   -13.3210     4.8290 ns         1 XMN      -0.506900
     25 N21        -15.9680   -14.0350     6.1010 n8         1 XMN      -1.015200
     26 O09        -23.4070    -8.4890    10.8640 o          1 XMN      -0.699000
     27 O10        -22.8630    -9.1480     8.7960 o          1 XMN      -0.699000
     28 O19        -17.3570   -11.6040     3.9900 o          1 XMN      -0.579100
     29 O23        -16.2480   -14.2250     2.4740 oh         1 XMN      -0.648000
     30 H131       -22.6980   -13.7930     8.2920 ha         1 XMN       0.114000
     31 H141       -21.7530   -14.1750     6.0610 ha         1 XMN       0.092000
     32 H161       -19.7950   -11.8020     4.1540 h1         1 XMN       0.060700
     33 H162       -20.5370   -13.3880     4.1800 h1         1 XMN       0.060700
     34 H013       -25.2980   -11.5790    15.3550 hc         1 XMN       0.029867
     35 H011       -25.1960   -11.6680    13.5980 hc         1 XMN       0.029867
     36 H012       -25.2740   -13.1500    14.5500 hc         1 XMN       0.029867
     37 H021       -22.9770   -11.1420    14.6240 hc         1 XMN       0.048700
     38 H031       -23.2870   -12.1640    16.7900 hc         1 XMN       0.029867
     39 H032       -23.3200   -13.7830    16.1110 hc         1 XMN       0.029867
     40 H033       -21.8300   -12.8380    16.0620 hc         1 XMN       0.029867
     41 H201       -15.3130   -12.8520     4.5440 h1         1 XMN       0.098700
     42 H221       -16.7840   -15.4710     4.0520 h1         1 XMN       0.021700
     43 H222       -15.0530   -15.1680     3.9000 h1         1 XMN       0.021700
     44 H261       -20.2670   -10.2850     8.6980 ha         1 XMN       0.149000
     45 H281       -21.2300   -14.6230    10.2370 ha         1 XMN       0.103000
     46 H291       -21.4560   -15.8460    12.3680 ha         1 XMN       0.090000
     47 H301       -22.3810   -14.7760    14.3550 ha         1 XMN       0.091000
     48 H061       -23.3530   -10.2290    12.4840 hn         1 XMN       0.369000
     49 H171       -18.5340   -14.2350     5.2520 hn         1 XMN       0.296500
     50 H211       -16.0440   -13.2850     6.7740 hn         1 XMN       0.410500
     51 H212       -16.6670   -14.7240     6.3470 hn         1 XMN       0.410500
     52 H231       -16.2680   -14.9770     1.8750 ho         1 XMN       0.440000
     53 C02        -23.3370   -12.1780    14.6350 c3         1 XMN      -0.009400
@<TRIPOS>BOND
     1     1     2 1   
     2     1    12 2   
     3     1    18 1   
     4     2     3 ar  
     5     2    17 ar  
     6     3     4 ar  
     7     3    30 1   
     8     4     5 ar  
     9     4    31 1   
    10     5     6 1   
    11     5    16 ar  
    12     6    24 1   
    13     6    32 1   
    14     6    33 1   
    15     7    14 1   
    16     7    24 1   
    17     7    28 2   
    18     8    34 1   
    19     8    35 1   
    20     8    36 1   
    21     8    53 1   
    22     9    38 1   
    23     9    39 1   
    24     9    40 1   
    25     9    53 1   
    26    10    11 ar  
    27    10    21 ar  
    28    10    53 1   
    29    11    18 ar  
    30    11    23 1   
    31    12    13 1   
    32    12    23 1   
    33    13    26 1   
    34    13    27 1   
    35    14    15 1   
    36    14    25 1   
    37    14    41 1   
    38    15    29 1   
    39    15    42 1   
    40    15    43 1   
    41    16    17 ar  
    42    16    22 1   
    43    17    44 1   
    44    18    19 ar  
    45    19    20 ar  
    46    19    45 1   
    47    20    21 ar  
    48    20    46 1   
    49    21    47 1   
    50    23    48 1   
    51    24    49 1   
    52    25    50 1   
    53    25    51 1   
    54    29    52 1   
    55    37    53 1   
@<TRIPOS>SUBSTRUCTURE
     1 XMN         1 TEMP              0 ****  ****    0 ROOT
