@<TRIPOS>MOLECULE
XMN
   53    55     1     0     0
SMALL
No Charge or Current Charge


@<TRIPOS>ATOM
      1 C11        -22.0070   -11.6340    10.1090 cc         1 XMN      -0.155400
      2 C12        -21.3340   -11.6220     8.8130 ca         1 XMN       0.092200
      3 C13        -21.8330   -12.4030     7.7550 ca         1 XMN      -0.140000
      4 C14        -21.1720   -12.4310     6.5150 ca         1 XMN      -0.093000
      5 C15        -19.9960   -11.6810     6.3220 ca         1 XMN      -0.195300
      6 C16        -19.2860   -11.7200     4.9780 c3         1 XMN       0.160300
      7 C18        -17.4790   -13.0790     3.8800 c          1 XMN       0.578100
      8 C01        -25.3320   -13.4420    14.4930 c3         1 XMN      -0.083100
      9 C03        -23.1330   -12.8590    15.6570 c3         1 XMN      -0.083100
     10 C04        -23.1970   -13.1870    13.1350 ca         1 XMN      -0.086300
     11 C05        -22.8690   -12.3150    12.0750 ca         1 XMN      -0.065200
     12 C07        -22.6390   -10.5310    10.6980 cd         1 XMN      -0.056300
     13 C08        -22.7870    -9.1390    10.1420 c          1 XMN       0.722200
     14 C20        -16.4820   -14.2920     4.0480 c3         1 XMN       0.081500
     15 C22        -16.1110   -14.5860     5.5370 c3         1 XMN       0.165600
     16 C24        -19.4910   -10.9120     7.3890 ca         1 XMN       0.181000
     17 C26        -20.1500   -10.8870     8.6270 ca         1 XMN      -0.115000
     18 C27        -22.1760   -12.7550    10.9810 ca         1 XMN      -0.080800
     19 C28        -21.7470   -14.0800    10.8440 ca         1 XMN      -0.077000
     20 C29        -22.0570   -14.9780    11.8830 ca         1 XMN      -0.158000
     21 C30        -22.7760   -14.5360    13.0180 ca         1 XMN      -0.118000
     22 F25        -18.3540   -10.1950     7.2360 f          1 XMN      -0.183000
     23 N06        -23.1630   -10.9610    11.9470 na         1 XMN      -0.194700
     24 N17        -18.3200   -12.8120     4.9370 ns         1 XMN      -0.506900
     25 N21        -15.2320   -14.2060     3.1930 n8         1 XMN      -1.015200
     26 O09        -23.3750    -8.3200    10.8360 o          1 XMN      -0.699000
     27 O10        -22.3520    -8.8610     9.0340 o          1 XMN      -0.699000
     28 O19        -17.4900   -12.3790     2.8740 o          1 XMN      -0.579100
     29 O23        -17.2320   -15.1060     6.2680 oh         1 XMN      -0.648000
     30 H131       -22.7370   -12.9900     7.8990 ha         1 XMN       0.114000
     31 H141       -21.5730   -13.0390     5.7070 ha         1 XMN       0.092000
     32 H161       -18.7650   -10.7710     4.7930 h1         1 XMN       0.060700
     33 H162       -20.0190   -11.8640     4.1730 h1         1 XMN       0.060700
     34 H013       -25.9110   -13.0400    15.3340 hc         1 XMN       0.029867
     35 H011       -25.9230   -13.3070    13.5790 hc         1 XMN       0.029867
     36 H012       -25.1930   -14.5170    14.6580 hc         1 XMN       0.029867
     37 H021       -24.2060   -11.6470    14.2730 hc         1 XMN       0.048700
     38 H031       -23.6700   -12.4460    16.5190 hc         1 XMN       0.029867
     39 H032       -22.9070   -13.9110    15.8680 hc         1 XMN       0.029867
     40 H033       -22.1840   -12.3180    15.5570 hc         1 XMN       0.029867
     41 H201       -17.0520   -15.1650     3.7000 h1         1 XMN       0.098700
     42 H221       -15.7350   -13.6690     6.0090 h1         1 XMN       0.021700
     43 H222       -15.2980   -15.3240     5.5570 h1         1 XMN       0.021700
     44 H261       -19.7450   -10.2960     9.4420 ha         1 XMN       0.149000
     45 H281       -21.1930   -14.4050     9.9670 ha         1 XMN       0.103000
     46 H291       -21.7420   -16.0170    11.8130 ha         1 XMN       0.090000
     47 H301       -23.0040   -15.2470    13.8080 ha         1 XMN       0.091000
     48 H061       -23.6770   -10.3820    12.6010 hn         1 XMN       0.369000
     49 H171       -18.2620   -13.4420     5.7310 hn         1 XMN       0.296500
     50 H211       -15.5140   -14.0270     2.2190 hn         1 XMN       0.410500
     51 H212       -14.7170   -13.3490     3.4350 hn         1 XMN       0.410500
     52 H231       -16.8840   -15.4390     7.1260 ho         1 XMN       0.440000
     53 C02        -23.9750   -12.7140    14.3700 c3         1 XMN      -0.009400
@<TRIPOS>BOND
     1     1     2 1   
     2     1    12 2   
     3     1    18 1   
     4     2     3 ar  
     5     2    17 ar  
     6     3     4 ar  
     7     3    30 1   
     8     4     5 ar  
     9     4    31 1   
    10     5     6 1   
    11     5    16 ar  
    12     6    24 1   
    13     6    32 1   
    14     6    33 1   
    15     7    14 1   
    16     7    24 1   
    17     7    28 2   
    18     8    34 1   
    19     8    35 1   
    20     8    36 1   
    21     8    53 1   
    22     9    38 1   
    23     9    39 1   
    24     9    40 1   
    25     9    53 1   
    26    10    11 ar  
    27    10    21 ar  
    28    10    53 1   
    29    11    18 ar  
    30    11    23 1   
    31    12    13 1   
    32    12    23 1   
    33    13    26 1   
    34    13    27 1   
    35    14    15 1   
    36    14    25 1   
    37    14    41 1   
    38    15    29 1   
    39    15    42 1   
    40    15    43 1   
    41    16    17 ar  
    42    16    22 1   
    43    17    44 1   
    44    18    19 ar  
    45    19    20 ar  
    46    19    45 1   
    47    20    21 ar  
    48    20    46 1   
    49    21    47 1   
    50    23    48 1   
    51    24    49 1   
    52    25    50 1   
    53    25    51 1   
    54    29    52 1   
    55    37    53 1   
@<TRIPOS>SUBSTRUCTURE
     1 XMN         1 TEMP              0 ****  ****    0 ROOT
