@<TRIPOS>MOLECULE
XMO
   42    43     1     0     0
SMALL
abcg2


@<TRIPOS>ATOM
      1 C10        152.7890   149.5920   138.3130 c5         1 XMO       0.145300
      2 C11        151.4500   148.9880   137.8710 c5         1 XMO       0.329700
      3 C01        149.6140   150.9320   142.8860 c3         1 XMO      -0.084600
      4 C02        148.9500   149.5550   142.9820 c3         1 XMO      -0.116700
      5 C03        148.2270   149.3770   144.3080 c3         1 XMO      -0.084600
      6 C04        149.9660   148.4570   142.7620 c          1 XMO       0.592100
      7 C07        151.4530   147.5380   141.1570 c3         1 XMO       0.161600
      8 C08        152.0820   147.9520   139.8520 c5         1 XMO       0.129300
      9 C09        152.7550   149.3250   139.8170 c5         1 XMO       0.094300
     10 C14        149.4240   150.1170   138.7310 cc         1 XMO       0.024600
     11 C15        148.4570   151.0600   138.6430 cd         1 XMO      -0.473600
     12 C16        148.5210   151.9090   137.5060 cd         1 XMO       0.761500
     13 C18        150.4120   150.8600   136.6810 c          1 XMO       0.707400
     14 N13        150.3880   150.0040   137.7960 n          1 XMO      -0.332000
     15 N17        149.4540   151.8020   136.5860 nc         1 XMO      -0.757100
     16 N20        147.5840   152.8540   137.2850 nu         1 XMO      -0.659900
     17 O05        150.2870   147.6250   143.5700 o          1 XMO      -0.475000
     18 O06        150.4880   148.5140   141.5370 os         1 XMO      -0.464100
     19 O12        151.1080   148.0150   138.8140 os         1 XMO      -0.445000
     20 O19        151.3020   150.7220   135.8520 o          1 XMO      -0.540000
     21 O21        146.7970   153.2530   138.3280 oh         1 XMO      -0.400300
     22 O22        153.8010   148.8590   137.6760 oh         1 XMO      -0.703000
     23 O23        154.0420   149.3480   140.3580 oh         1 XMO      -0.709000
     24 H101       152.8570   150.6610   138.0880 h1         1 XMO       0.081700
     25 H111       151.5320   148.5400   136.8790 h2         1 XMO       0.128700
     26 H012       148.8680   151.7080   143.0540 hc         1 XMO       0.045533
     27 H013       150.3890   151.0480   143.6450 hc         1 XMO       0.045533
     28 H011       150.0610   151.1100   141.9090 hc         1 XMO       0.045533
     29 H021       148.2210   149.4750   142.1670 hc         1 XMO       0.071700
     30 H033       147.4590   150.1430   144.4130 hc         1 XMO       0.045533
     31 H031       147.7370   148.4070   144.3810 hc         1 XMO       0.045533
     32 H032       148.9110   149.4760   145.1520 hc         1 XMO       0.045533
     33 H072       150.9770   146.5590   141.0630 h1         1 XMO       0.064700
     34 H071       152.2440   147.4500   141.9070 h1         1 XMO       0.064700
     35 H081       152.8310   147.1840   139.6160 h1         1 XMO       0.084700
     36 H091       152.1050   150.0750   140.2870 h1         1 XMO       0.059700
     37 H141       149.4500   149.4240   139.5560 h4         1 XMO       0.227000
     38 H151       147.6910   151.1360   139.3970 ha         1 XMO       0.213000
     39 H201       147.8030   153.5910   136.6270 hn         1 XMO       0.520000
     40 H211       145.9100   152.9300   138.1250 ho         1 XMO       0.459000
     41 H221       154.6450   149.0920   138.0780 ho         1 XMO       0.529000
     42 H231       153.9820   149.4580   141.3120 ho         1 XMO       0.519000
@<TRIPOS>BOND
     1     1     2 1   
     2     1     9 1   
     3     1    22 1   
     4     1    24 1   
     5     2    14 1   
     6     2    19 1   
     7     2    25 1   
     8     3     4 1   
     9     3    26 1   
    10     3    27 1   
    11     3    28 1   
    12     4     5 1   
    13     4     6 1   
    14     4    29 1   
    15     5    30 1   
    16     5    31 1   
    17     5    32 1   
    18     6    17 2   
    19     6    18 1   
    20     7     8 1   
    21     7    18 1   
    22     7    33 1   
    23     7    34 1   
    24     8     9 1   
    25     8    19 1   
    26     8    35 1   
    27     9    23 1   
    28     9    36 1   
    29    10    11 2   
    30    10    14 1   
    31    10    37 1   
    32    11    12 1   
    33    11    38 1   
    34    12    15 2   
    35    12    16 1   
    36    13    14 1   
    37    13    15 1   
    38    13    20 2   
    39    16    21 1   
    40    16    39 1   
    41    21    40 1   
    42    22    41 1   
    43    23    42 1   
@<TRIPOS>SUBSTRUCTURE
     1 XMO         1 TEMP              0 ****  ****    0 ROOT
