@<TRIPOS>MOLECULE
XMO
   42    43     1     0     0
SMALL
No Charge or Current Charge


@<TRIPOS>ATOM
      1 C10        152.5680   149.8090   138.2170 c5         1 XMO       0.145300
      2 C11        151.2590   149.0010   137.8610 c5         1 XMO       0.329700
      3 C01        149.8790   150.2500   144.8240 c3         1 XMO      -0.084600
      4 C02        149.3310   149.5280   143.5700 c3         1 XMO      -0.116700
      5 C03        147.8950   148.9930   143.7840 c3         1 XMO      -0.084600
      6 C04        150.2820   148.4060   143.1100 c          1 XMO       0.592100
      7 C07        151.6840   147.6720   141.2880 c3         1 XMO       0.161600
      8 C08        152.0740   148.1250   139.8580 c5         1 XMO       0.129300
      9 C09        152.6970   149.5530   139.7510 c5         1 XMO       0.094300
     10 C14        149.6220   150.7700   138.5380 cc         1 XMO       0.024600
     11 C15        148.6790   151.7070   138.1900 cd         1 XMO      -0.473600
     12 C16        148.3170   151.8020   136.8190 cd         1 XMO       0.761500
     13 C18        149.7770   150.1070   136.1990 c          1 XMO       0.707400
     14 N13        150.1700   149.9640   137.5420 n          1 XMO      -0.332000
     15 N17        148.8320   151.0470   135.8930 nc         1 XMO      -0.757100
     16 N20        147.3850   152.6900   136.3840 nu         1 XMO      -0.659900
     17 O05        150.5580   147.4230   143.7850 o          1 XMO      -0.475000
     18 O06        150.7810   148.6450   141.8570 os         1 XMO      -0.464100
     19 O12        150.9020   148.2140   139.0200 os         1 XMO      -0.445000
     20 O19        150.2550   149.4280   135.3060 o          1 XMO      -0.540000
     21 O21        147.2860   154.0050   137.0510 oh         1 XMO      -0.400300
     22 O22        153.7450   149.2790   137.5930 oh         1 XMO      -0.703000
     23 O23        154.0780   149.6150   140.1640 oh         1 XMO      -0.709000
     24 H101       152.4630   150.8810   137.9980 h1         1 XMO       0.081700
     25 H111       151.4320   148.3480   136.9960 h2         1 XMO       0.128700
     26 H012       149.2280   151.0860   145.1070 hc         1 XMO       0.045533
     27 H013       149.9430   149.5610   145.6760 hc         1 XMO       0.045533
     28 H011       150.8820   150.6500   144.6310 hc         1 XMO       0.045533
     29 H021       149.2840   150.2690   142.7620 hc         1 XMO       0.071700
     30 H033       147.2120   149.8090   144.0500 hc         1 XMO       0.045533
     31 H031       147.5190   148.5210   142.8680 hc         1 XMO       0.045533
     32 H032       147.8700   148.2480   144.5890 hc         1 XMO       0.045533
     33 H072       151.2100   146.6830   141.2290 h1         1 XMO       0.064700
     34 H071       152.5930   147.5790   141.8970 h1         1 XMO       0.064700
     35 H081       152.7510   147.3720   139.4310 h1         1 XMO       0.084700
     36 H091       152.0960   150.2850   140.3090 h1         1 XMO       0.059700
     37 H141       149.9830   150.5610   139.5430 h4         1 XMO       0.227000
     38 H151       148.2150   152.3480   138.9280 ha         1 XMO       0.213000
     39 H201       147.4010   152.7700   135.3630 hn         1 XMO       0.520000
     40 H211       146.4060   154.0340   137.5040 ho         1 XMO       0.459000
     41 H221       154.3870   149.2710   138.3520 ho         1 XMO       0.529000
     42 H231       154.0930   149.8160   141.1310 ho         1 XMO       0.519000
@<TRIPOS>BOND
     1     1     2 1   
     2     1     9 1   
     3     1    22 1   
     4     1    24 1   
     5     2    14 1   
     6     2    19 1   
     7     2    25 1   
     8     3     4 1   
     9     3    26 1   
    10     3    27 1   
    11     3    28 1   
    12     4     5 1   
    13     4     6 1   
    14     4    29 1   
    15     5    30 1   
    16     5    31 1   
    17     5    32 1   
    18     6    17 2   
    19     6    18 1   
    20     7     8 1   
    21     7    18 1   
    22     7    33 1   
    23     7    34 1   
    24     8     9 1   
    25     8    19 1   
    26     8    35 1   
    27     9    23 1   
    28     9    36 1   
    29    10    11 2   
    30    10    14 1   
    31    10    37 1   
    32    11    12 1   
    33    11    38 1   
    34    12    15 2   
    35    12    16 1   
    36    13    14 1   
    37    13    15 1   
    38    13    20 2   
    39    16    21 1   
    40    16    39 1   
    41    21    40 1   
    42    22    41 1   
    43    23    42 1   
@<TRIPOS>SUBSTRUCTURE
     1 XMO         1 TEMP              0 ****  ****    0 ROOT
