@<TRIPOS>MOLECULE
XMQ
   59    61     1     0     0
SMALL
No Charge or Current Charge


@<TRIPOS>ATOM
      1 CAP         -6.9280     1.7460     0.0650 c6         1 XMQ       0.129800
      2 CAN         -8.2190     1.2450     0.7950 c6         1 XMQ       0.164800
      3 NBA         -8.5960    -0.1510     0.4080 n3         1 XMQ      -0.715600
      4 CAC         -9.1540    -0.2500    -0.9630 c3         1 XMQ       0.153100
      5 CAO         -7.4280    -1.0580     0.6390 c6         1 XMQ       0.164800
      6 CAQ         -6.1290    -0.5730    -0.0890 c6         1 XMQ       0.129800
      7 NBB         -5.7600     0.8340     0.2760 n3         1 XMQ      -0.715600
      8 CAM         -4.5350     1.3320    -0.3960 c3         1 XMQ       0.169800
      9 CAK         -3.2420     0.5640    -0.0400 c3         1 XMQ      -0.074400
     10 CAL         -1.9740     1.2120    -0.6360 c3         1 XMQ      -0.042100
     11 CAU         -0.7150     0.4350    -0.2790 ca         1 XMQ      -0.011300
     12 CAJ         -0.2470    -0.5860    -1.1120 ca         1 XMQ      -0.136500
     13 CAW          0.9130    -1.3090    -0.7910 ca         1 XMQ       0.208500
     14 ClH          1.4030    -2.5100    -1.9900 cl         1 XMQ      -0.153500
     15 CAI          0.0010     0.7360     0.8850 ca         1 XMQ      -0.136500
     16 CAV          1.1640     0.0270     1.2280 ca         1 XMQ       0.208500
     17 ClG          1.9580     0.5820     2.7020 cl         1 XMQ      -0.153500
     18 CAZ          1.6360    -1.0310     0.4010 ca         1 XMQ      -0.272500
     19 SBD          3.1420    -1.9630     0.7930 sy         1 XMQ       1.162600
     20 OAE          3.6030    -1.7260     2.1610 o          1 XMQ      -0.520500
     21 OAF          3.0720    -3.3210     0.2540 o          1 XMQ      -0.520500
     22 NAS          4.3360    -1.2570    -0.1670 nu         1 XMQ      -0.853100
     23 CAY          4.4460     0.1160    -0.3480 cc         1 XMQ       0.094000
     24 CAX          4.0440     0.8610    -1.4140 cd         1 XMQ      -0.136300
     25 CAB          3.3750     0.4490    -2.7030 c3         1 XMQ      -0.034800
     26 NBC          4.3660     2.1830    -1.0680 na         1 XMQ       0.143800
     27 CAD          4.1090     3.3850    -1.8750 c3         1 XMQ       0.069900
     28 NAR          4.9930     2.2840     0.1660 nd         1 XMQ      -0.523800
     29 CAT          5.0310     1.0300     0.5730 cc         1 XMQ       0.315300
     30 CAA          5.6830     0.6330     1.8700 c3         1 XMQ      -0.125400
     31 HAP1        -7.1410     1.8450    -1.0090 h1         1 XMQ       0.033450
     32 HAP2        -6.6900     2.7540     0.4350 h1         1 XMQ       0.033450
     33 HAN1        -8.0380     1.2930     1.8790 h1         1 XMQ       0.058950
     34 HAN2        -9.0440     1.9420     0.5850 h1         1 XMQ       0.058950
     35 HAC1        -8.4190     0.0510    -1.7210 h1         1 XMQ       0.029367
     36 HAC2        -9.4630    -1.2810    -1.1790 h1         1 XMQ       0.029367
     37 HAC3       -10.0360     0.3950    -1.0670 h1         1 XMQ       0.029367
     38 HAO1        -7.2120    -1.1160     1.7160 h1         1 XMQ       0.058950
     39 HAO2        -7.6610    -2.0820     0.3120 h1         1 XMQ       0.058950
     40 HAQ1        -5.3190    -1.2660     0.1780 h1         1 XMQ       0.033450
     41 HAQ2        -6.2740    -0.6560    -1.1760 h1         1 XMQ       0.033450
     42 HAM1        -4.6700     1.3070    -1.4860 h1         1 XMQ       0.028200
     43 HAM2        -4.3800     2.3840    -0.1180 h1         1 XMQ       0.028200
     44 HAK1        -3.1420     0.5170     1.0510 hc         1 XMQ       0.056200
     45 HAK2        -3.3110    -0.4680    -0.4040 hc         1 XMQ       0.056200
     46 HAL1        -2.0810     1.2750    -1.7260 hc         1 XMQ       0.052700
     47 HAL2        -1.8940     2.2450    -0.2770 hc         1 XMQ       0.052700
     48 HAJ         -0.7820    -0.8210    -2.0290 ha         1 XMQ       0.134500
     49 HAI         -0.3430     1.5360     1.5360 ha         1 XMQ       0.134500
     50 HAS          4.2310    -1.7780    -1.0280 hn         1 XMQ       0.499000
     51 HAB1         2.2910     0.6020    -2.6480 hc         1 XMQ       0.053367
     52 HAB2         3.7520     1.0300    -3.5520 hc         1 XMQ       0.053367
     53 HAB3         3.5570    -0.6080    -2.9280 hc         1 XMQ       0.053367
     54 HAD1         3.0560     3.4030    -2.1780 h1         1 XMQ       0.058033
     55 HAD2         4.3320     4.2860    -1.2910 h1         1 XMQ       0.058033
     56 HAD3         4.7450     3.3660    -2.7690 h1         1 XMQ       0.058033
     57 HAA1         6.1090    -0.3740     1.8080 hc         1 XMQ       0.058367
     58 HAA2         6.4970     1.3210     2.1250 hc         1 XMQ       0.058367
     59 HAA3         4.9600     0.6510     2.6920 hc         1 XMQ       0.058367
@<TRIPOS>BOND
     1     1     2 1   
     2     1     7 1   
     3     1    31 1   
     4     1    32 1   
     5     2     3 1   
     6     2    33 1   
     7     2    34 1   
     8     3     4 1   
     9     3     5 1   
    10     4    35 1   
    11     4    36 1   
    12     4    37 1   
    13     5     6 1   
    14     5    38 1   
    15     5    39 1   
    16     6     7 1   
    17     6    40 1   
    18     6    41 1   
    19     7     8 1   
    20     8     9 1   
    21     8    42 1   
    22     8    43 1   
    23     9    10 1   
    24     9    44 1   
    25     9    45 1   
    26    10    11 1   
    27    10    46 1   
    28    10    47 1   
    29    11    12 ar  
    30    11    15 ar  
    31    12    13 ar  
    32    12    48 1   
    33    13    14 1   
    34    13    18 ar  
    35    15    16 ar  
    36    15    49 1   
    37    16    17 1   
    38    16    18 ar  
    39    18    19 1   
    40    19    20 2   
    41    19    21 2   
    42    19    22 1   
    43    22    23 1   
    44    22    50 1   
    45    23    24 2   
    46    23    29 1   
    47    24    25 1   
    48    24    26 1   
    49    25    51 1   
    50    25    52 1   
    51    25    53 1   
    52    26    27 1   
    53    26    28 1   
    54    27    54 1   
    55    27    55 1   
    56    27    56 1   
    57    28    29 2   
    58    29    30 1   
    59    30    57 1   
    60    30    58 1   
    61    30    59 1   
@<TRIPOS>SUBSTRUCTURE
     1 XMQ         1 TEMP              0 ****  ****    0 ROOT
