@<TRIPOS>MOLECULE
XMQ
   59    61     1     0     0
SMALL
bcc


@<TRIPOS>ATOM
      1 CAP         -6.9170     1.5990     0.1020 c6         1 XMQ       0.129800
      2 CAN         -8.0940     1.0210     0.8810 c6         1 XMQ       0.164800
      3 NBA         -8.5260    -0.2840     0.4130 n3         1 XMQ      -0.715600
      4 CAC         -9.3050    -0.2380    -0.8080 c3         1 XMQ       0.153100
      5 CAO         -7.3850    -1.1780     0.3450 c6         1 XMQ       0.164800
      6 CAQ         -6.2060    -0.6120    -0.4390 c6         1 XMQ       0.129800
      7 NBB         -5.7990     0.6700     0.1120 n3         1 XMQ      -0.715600
      8 CAM         -4.6390     1.2150    -0.5640 c3         1 XMQ       0.169800
      9 CAK         -3.3420     0.5160    -0.1790 c3         1 XMQ      -0.074400
     10 CAL         -2.1490     1.1140    -0.9280 c3         1 XMQ      -0.042100
     11 CAU         -0.8580     0.4940    -0.4870 ca         1 XMQ      -0.011300
     12 CAJ         -0.4290    -0.7130    -1.0240 ca         1 XMQ      -0.154500
     13 CAW          0.7350    -1.3050    -0.5770 ca         1 XMQ       0.116900
     14 CLH          1.2400    -2.7180    -1.4350 cl         1 XMQ      -0.061900
     15 CAI         -0.0680     1.1050     0.4740 ca         1 XMQ      -0.154500
     16 CAV          1.1010     0.5120     0.9270 ca         1 XMQ       0.116900
     17 CLG          2.0170     1.4570     2.0410 cl         1 XMQ      -0.061900
     18 CAZ          1.5090    -0.7370     0.4450 ca         1 XMQ      -0.272500
     19 SBD          2.9640    -1.6020     1.0520 sy         1 XMQ       1.304200
     20 OAE          3.3560    -0.9950     2.3030 o          1 XMQ      -0.591300
     21 OAF          2.7070    -3.0260     1.0220 o          1 XMQ      -0.591300
     22 NAS          4.1440    -1.2900    -0.0580 nu         1 XMQ      -0.659500
     23 CAY          4.5230     0.0520    -0.2450 cc         1 XMQ      -0.109700
     24 CAX          3.9940     0.9700    -1.1380 cd         1 XMQ      -0.085600
     25 CAB          2.9250     0.8350    -2.1590 c3         1 XMQ      -0.034800
     26 NBC          4.6810     2.1030    -0.9250 na         1 XMQ       0.122400
     27 CAD          4.4750     3.3790    -1.5650 c3         1 XMQ       0.040600
     28 NAR          5.5970     1.9840     0.0440 nd         1 XMQ      -0.523800
     29 CAT          5.5220     0.7400     0.4690 cc         1 XMQ       0.380600
     30 CAA          6.3990     0.2200     1.5510 c3         1 XMQ      -0.125400
     31 HAP1        -7.2260     1.8560    -0.9260 h1         1 XMQ       0.033450
     32 HAP2        -6.6060     2.5340     0.5760 h1         1 XMQ       0.033450
     33 HAN1        -7.7980     0.9280     1.9320 h1         1 XMQ       0.058950
     34 HAN2        -8.9360     1.7160     0.8450 h1         1 XMQ       0.058950
     35 HAC1        -8.7780     0.1420    -1.6930 h1         1 XMQ       0.029367
     36 HAC2        -9.6610    -1.2410    -1.0500 h1         1 XMQ       0.029367
     37 HAC3       -10.1820     0.3930    -0.6560 h1         1 XMQ       0.029367
     38 HAO1        -7.0500    -1.3890     1.3660 h1         1 XMQ       0.058950
     39 HAO2        -7.6960    -2.1290    -0.0930 h1         1 XMQ       0.058950
     40 HAQ1        -5.3790    -1.3210    -0.3780 h1         1 XMQ       0.033450
     41 HAQ2        -6.4640    -0.5210    -1.5090 h1         1 XMQ       0.033450
     42 HAM1        -4.7620     1.1940    -1.6610 h1         1 XMQ       0.028200
     43 HAM2        -4.5510     2.2700    -0.2890 h1         1 XMQ       0.028200
     44 HAK1        -3.1910     0.6150     0.8990 hc         1 XMQ       0.056200
     45 HAK2        -3.3960    -0.5550    -0.3930 hc         1 XMQ       0.056200
     46 HAL1        -2.2790     0.9650    -2.0030 hc         1 XMQ       0.052700
     47 HAL2        -2.1120     2.1930    -0.7580 hc         1 XMQ       0.052700
     48 HAJ         -1.0000    -1.1880    -1.8120 ha         1 XMQ       0.152500
     49 HAI         -0.3560     2.0690     0.8740 ha         1 XMQ       0.152500
     50 HAS          4.1370    -1.9110    -0.8590 hn         1 XMQ       0.443800
     51 HAB1         2.0100     1.3470    -1.8530 hc         1 XMQ       0.053367
     52 HAB2         3.2290     1.2500    -3.1210 hc         1 XMQ       0.053367
     53 HAB3         2.6820    -0.2120    -2.3210 hc         1 XMQ       0.053367
     54 HAD1         3.6610     3.9310    -1.0930 h1         1 XMQ       0.058033
     55 HAD2         5.3890     3.9600    -1.4860 h1         1 XMQ       0.058033
     56 HAD3         4.2390     3.2410    -2.6170 h1         1 XMQ       0.058033
     57 HAA1         6.7840    -0.7690     1.3030 hc         1 XMQ       0.058367
     58 HAA2         7.2450     0.8860     1.7160 hc         1 XMQ       0.058367
     59 HAA3         5.8530     0.1270     2.4900 hc         1 XMQ       0.058367
@<TRIPOS>BOND
     1     1     2 1   
     2     1     7 1   
     3     1    31 1   
     4     1    32 1   
     5     2     3 1   
     6     2    33 1   
     7     2    34 1   
     8     3     4 1   
     9     3     5 1   
    10     4    35 1   
    11     4    36 1   
    12     4    37 1   
    13     5     6 1   
    14     5    38 1   
    15     5    39 1   
    16     6     7 1   
    17     6    40 1   
    18     6    41 1   
    19     7     8 1   
    20     8     9 1   
    21     8    42 1   
    22     8    43 1   
    23     9    10 1   
    24     9    44 1   
    25     9    45 1   
    26    10    11 1   
    27    10    46 1   
    28    10    47 1   
    29    11    12 ar  
    30    11    15 ar  
    31    12    13 ar  
    32    12    48 1   
    33    13    14 1   
    34    13    18 ar  
    35    15    16 ar  
    36    15    49 1   
    37    16    17 1   
    38    16    18 ar  
    39    18    19 1   
    40    19    20 2   
    41    19    21 2   
    42    19    22 1   
    43    22    23 1   
    44    22    50 1   
    45    23    24 2   
    46    23    29 1   
    47    24    25 1   
    48    24    26 1   
    49    25    51 1   
    50    25    52 1   
    51    25    53 1   
    52    26    27 1   
    53    26    28 1   
    54    27    54 1   
    55    27    55 1   
    56    27    56 1   
    57    28    29 2   
    58    29    30 1   
    59    30    57 1   
    60    30    58 1   
    61    30    59 1   
@<TRIPOS>SUBSTRUCTURE
     1 XMQ         1 TEMP              0 ****  ****    0 ROOT
