@<TRIPOS>MOLECULE
XMR
   33    35     1     0     0
SMALL
abcg2


@<TRIPOS>ATOM
      1 N1         -23.9990   -46.2290   -24.4960 nu         1 XMR      -0.932100
      2 N3         -21.4580   -46.3250   -25.5980 nc         1 XMR      -0.719000
      3 C4         -25.8340   -47.5700   -23.4070 ca         1 XMR      -0.219300
      4 C5         -25.4760   -48.8660   -23.0380 ca         1 XMR      -0.038000
      5 C6         -26.3870   -49.9160   -23.0290 ca         1 XMR      -0.198000
      6 C7         -24.8170   -46.4530   -23.3110 c3         1 XMR       0.289100
      7 C8         -24.3640   -45.4550   -25.5410 ca         1 XMR       0.672900
      8 C10        -25.2340   -43.8390   -27.6110 ca         1 XMR      -0.237000
      9 C13        -22.0750   -45.6240   -26.6440 cc         1 XMR       0.319500
     10 C15        -21.1580   -45.4980   -27.6430 cd         1 XMR       0.098900
     11 C1         -27.6890   -49.6270   -23.3960 ca         1 XMR       0.205000
     12 C2         -28.0990   -48.3690   -23.7830 ca         1 XMR      -0.203000
     13 C3         -27.1640   -47.3300   -23.8000 ca         1 XMR       0.209100
     14 O1         -27.5960   -46.1070   -24.1760 oh         1 XMR      -0.593100
     15 N2         -25.6260   -44.9900   -25.5580 nb         1 XMR      -0.814000
     16 C9         -26.0460   -44.2100   -26.5600 ca         1 XMR       0.417900
     17 C11        -23.9260   -44.3170   -27.6140 ca         1 XMR      -0.010000
     18 C12        -23.4530   -45.1350   -26.5980 ca         1 XMR      -0.244500
     19 C14        -20.2570   -46.5690   -26.0000 cd         1 XMR       0.457900
     20 O2         -19.9960   -46.0960   -27.2350 os         1 XMR      -0.262000
     21 F          -28.6120   -50.6260   -23.3800 f          1 XMR      -0.186000
     22 H1         -23.0360   -46.5370   -24.4810 hn         1 XMR       0.536000
     23 H2         -24.4540   -49.0540   -22.7300 ha         1 XMR       0.109000
     24 H3         -26.1050   -50.9170   -22.7320 ha         1 XMR       0.132000
     25 H4         -24.1210   -46.6950   -22.5090 h1         1 XMR       0.057700
     26 H5         -25.3150   -45.5210   -23.0390 h1         1 XMR       0.057700
     27 H6         -25.6020   -43.2010   -28.4010 ha         1 XMR       0.130000
     28 H7         -21.1550   -45.0570   -28.6220 h4         1 XMR       0.068100
     29 H8         -29.1240   -48.1860   -24.0780 ha         1 XMR       0.144000
     30 H9         -26.8320   -45.6010   -24.6100 ho         1 XMR       0.528000
     31 H10        -27.0780   -43.8830   -26.5030 h4         1 XMR       0.025100
     32 H11        -23.2630   -44.0400   -28.4230 ha         1 XMR       0.112000
     33 H12        -19.4650   -47.0880   -25.4850 h5         1 XMR       0.087100
@<TRIPOS>BOND
     1     1     6 1   
     2     1     7 1   
     3     1    22 1   
     4     2     9 1   
     5     2    19 2   
     6     3     4 ar  
     7     3     6 1   
     8     3    13 ar  
     9     4     5 ar  
    10     4    23 1   
    11     5    11 ar  
    12     5    24 1   
    13     6    25 1   
    14     6    26 1   
    15     7    15 ar  
    16     7    18 ar  
    17     8    16 ar  
    18     8    17 ar  
    19     8    27 1   
    20     9    10 2   
    21     9    18 1   
    22    10    20 1   
    23    10    28 1   
    24    11    12 ar  
    25    11    21 1   
    26    12    13 ar  
    27    12    29 1   
    28    13    14 1   
    29    14    30 1   
    30    15    16 ar  
    31    16    31 1   
    32    17    18 ar  
    33    17    32 1   
    34    19    20 1   
    35    19    33 1   
@<TRIPOS>SUBSTRUCTURE
     1 XMR         1 TEMP              0 ****  ****    0 ROOT
