@<TRIPOS>MOLECULE
XMR
   33    35     1     0     0
SMALL
No Charge or Current Charge


@<TRIPOS>ATOM
      1 N1         -24.0740   -45.7120   -24.1400 nu         1 XMR      -0.932100
      2 N3         -21.8790   -46.7920   -25.5290 nc         1 XMR      -0.719000
      3 C4         -25.7230   -47.3510   -23.3610 ca         1 XMR      -0.219300
      4 C5         -25.1780   -48.6150   -23.0530 ca         1 XMR      -0.038000
      5 C6         -25.9090   -49.7840   -23.3200 ca         1 XMR      -0.198000
      6 C7         -24.9290   -46.0980   -23.0160 c3         1 XMR       0.289100
      7 C8         -24.4320   -45.1350   -25.3280 ca         1 XMR       0.672900
      8 C10        -25.3100   -43.8900   -27.5870 ca         1 XMR      -0.237000
      9 C13        -22.3330   -45.9300   -26.4840 cc         1 XMR       0.319500
     10 C15        -21.4070   -45.8130   -27.4820 cd         1 XMR       0.098900
     11 C1         -27.1860   -49.6950   -23.8880 ca         1 XMR       0.205000
     12 C2         -27.7360   -48.4460   -24.2000 ca         1 XMR      -0.203000
     13 C3         -27.0050   -47.2780   -23.9450 ca         1 XMR       0.209100
     14 O1         -27.5500   -46.0790   -24.2810 oh         1 XMR      -0.593100
     15 N2         -25.6110   -44.5020   -25.2720 nb         1 XMR      -0.814000
     16 C9         -26.0360   -43.8770   -26.3910 ca         1 XMR       0.417900
     17 C11        -24.0830   -44.5630   -27.6400 ca         1 XMR      -0.010000
     18 C12        -23.6100   -45.1990   -26.4730 ca         1 XMR      -0.244500
     19 C14        -20.6900   -47.1700   -26.0010 cd         1 XMR       0.457900
     20 O2         -20.3360   -46.6030   -27.2020 os         1 XMR      -0.262000
     21 F          -27.8900   -50.8200   -24.1410 f          1 XMR      -0.186000
     22 H1         -23.2180   -46.2600   -24.2690 hn         1 XMR       0.536000
     23 H2         -24.1900   -48.6910   -22.6020 ha         1 XMR       0.109000
     24 H3         -25.4890   -50.7580   -23.0810 ha         1 XMR       0.132000
     25 H4         -24.3000   -46.3130   -22.1400 h1         1 XMR       0.057700
     26 H5         -25.5980   -45.2760   -22.7230 h1         1 XMR       0.057700
     27 H6         -25.7030   -43.3830   -28.4630 ha         1 XMR       0.130000
     28 H7         -21.3840   -45.2290   -28.3910 h4         1 XMR       0.068100
     29 H8         -28.7230   -48.3850   -24.6470 ha         1 XMR       0.144000
     30 H9         -26.7930   -45.4760   -24.5420 ho         1 XMR       0.528000
     31 H10        -26.9940   -43.3630   -26.3280 h4         1 XMR       0.025100
     32 H11        -23.5250   -44.5830   -28.5740 ha         1 XMR       0.112000
     33 H12        -19.9920   -47.8600   -25.5400 h5         1 XMR       0.087100
@<TRIPOS>BOND
     1     1     6 1   
     2     1     7 1   
     3     1    22 1   
     4     2     9 1   
     5     2    19 2   
     6     3     4 ar  
     7     3     6 1   
     8     3    13 ar  
     9     4     5 ar  
    10     4    23 1   
    11     5    11 ar  
    12     5    24 1   
    13     6    25 1   
    14     6    26 1   
    15     7    15 ar  
    16     7    18 ar  
    17     8    16 ar  
    18     8    17 ar  
    19     8    27 1   
    20     9    10 2   
    21     9    18 1   
    22    10    20 1   
    23    10    28 1   
    24    11    12 ar  
    25    11    21 1   
    26    12    13 ar  
    27    12    29 1   
    28    13    14 1   
    29    14    30 1   
    30    15    16 ar  
    31    16    31 1   
    32    17    18 ar  
    33    17    32 1   
    34    19    20 1   
    35    19    33 1   
@<TRIPOS>SUBSTRUCTURE
     1 XMR         1 TEMP              0 ****  ****    0 ROOT
