@<TRIPOS>MOLECULE
XMS
   35    37     1     0     0
SMALL
abcg2


@<TRIPOS>ATOM
      1 C1          -5.5960    -1.5940     1.1100 c3         1 XMS       0.078900
      2 N2          -4.7810    -0.8540     0.1770 na         1 XMS       0.060600
      3 N3          -5.2590    -0.4530    -0.9940 nc         1 XMS      -0.191400
      4 N4          -4.3570     0.1880    -1.6380 nd         1 XMS      -0.228400
      5 C5          -3.2290     0.2220    -0.8720 ca         1 XMS       0.015400
      6 C6          -1.9700     0.7890    -1.1060 ca         1 XMS      -0.045000
      7 C7          -1.0090     0.6560    -0.1280 ca         1 XMS      -0.075300
      8 C8          -1.3070    -0.0430     1.0700 ca         1 XMS      -0.056000
      9 C9          -2.5350    -0.6060     1.3210 ca         1 XMS      -0.133000
     10 C10         -3.4960    -0.4560     0.3170 ca         1 XMS      -0.090200
     11 C11          0.3590     1.2800    -0.3090 c3         1 XMS       0.035900
     12 C12          0.5300     2.4880     0.6080 c3         1 XMS      -0.209400
     13 C13          1.8120     3.3040     0.3480 c          1 XMS       0.715000
     14 O14          2.2200     3.3500    -0.8280 o          1 XMS      -0.730000
     15 O15          2.3140     3.8810     1.3340 o          1 XMS      -0.730000
     16 C16          1.4360     0.2260    -0.1540 ca         1 XMS      -0.025300
     17 C17          2.3530     0.2170     0.8920 ca         1 XMS      -0.092500
     18 C18          3.3030    -0.7900     1.0120 ca         1 XMS      -0.114000
     19 C19          3.3380    -1.8030     0.0710 ca         1 XMS       0.107000
     20 CL20         4.5210    -3.0660     0.2120 cl         1 XMS      -0.249000
     21 C21          2.4420    -1.8200    -0.9880 ca         1 XMS      -0.114000
     22 C22          1.5020    -0.8080    -1.0880 ca         1 XMS      -0.092500
     23 H11          0.4170     1.6470    -1.3370 hc         1 XMS       0.087700
     24 H1          -6.5520    -1.8040     0.6400 h1         1 XMS       0.052367
     25 H1A         -5.1110    -2.5320     1.3700 h1         1 XMS       0.052367
     26 H1B         -5.7610    -1.0130     2.0160 h1         1 XMS       0.052367
     27 H6          -1.7590     1.3160    -2.0290 ha         1 XMS       0.137000
     28 H8          -0.5300    -0.1440     1.8190 ha         1 XMS       0.125000
     29 H9          -2.7380    -1.1360     2.2420 ha         1 XMS       0.113000
     30 H12         -0.3240     3.1550     0.4440 hc         1 XMS       0.026200
     31 H12A         0.4700     2.1940     1.6590 hc         1 XMS       0.026200
     32 H17          2.3530     1.0050     1.6330 ha         1 XMS       0.130000
     33 H18          4.0070    -0.7760     1.8330 ha         1 XMS       0.115000
     34 H21          2.4760    -2.6110    -1.7250 ha         1 XMS       0.115000
     35 H22          0.8010    -0.8290    -1.9140 ha         1 XMS       0.130000
@<TRIPOS>BOND
     1     1     2 1   
     2     1    24 1   
     3     1    25 1   
     4     1    26 1   
     5     2     3 1   
     6     2    10 1   
     7     3     4 2   
     8     4     5 1   
     9     5     6 ar  
    10     5    10 ar  
    11     6     7 ar  
    12     6    27 1   
    13     7     8 ar  
    14     7    11 1   
    15     8     9 ar  
    16     8    28 1   
    17     9    10 ar  
    18     9    29 1   
    19    11    12 1   
    20    11    16 1   
    21    11    23 1   
    22    12    13 1   
    23    12    30 1   
    24    12    31 1   
    25    13    14 1   
    26    13    15 1   
    27    16    17 ar  
    28    16    22 ar  
    29    17    18 ar  
    30    17    32 1   
    31    18    19 ar  
    32    18    33 1   
    33    19    20 1   
    34    19    21 ar  
    35    21    22 ar  
    36    21    34 1   
    37    22    35 1   
@<TRIPOS>SUBSTRUCTURE
     1 XMS         1 TEMP              0 ****  ****    0 ROOT
