@<TRIPOS>MOLECULE
XMS
   35    37     1     0     0
SMALL
No Charge or Current Charge


@<TRIPOS>ATOM
      1 C1          -5.7120    -1.3190     1.3810 c3         1 XMS       0.078900
      2 N2          -4.7310    -1.1240     0.3050 na         1 XMS       0.060600
      3 N3          -4.8820    -1.5800    -0.9960 nc         1 XMS      -0.191400
      4 N4          -3.7970    -1.2180    -1.6860 nd         1 XMS      -0.228400
      5 C5          -2.9680    -0.5330    -0.8080 ca         1 XMS       0.015400
      6 C6          -1.7150     0.0440    -1.0510 ca         1 XMS      -0.045000
      7 C7          -1.0480     0.7010     0.0130 ca         1 XMS      -0.075300
      8 C8          -1.6640     0.7460     1.2970 ca         1 XMS      -0.056000
      9 C9          -2.9280     0.1560     1.5110 ca         1 XMS      -0.133000
     10 C10         -3.5400    -0.4720     0.4190 ca         1 XMS      -0.090200
     11 C11          0.3330     1.3180    -0.2560 c3         1 XMS       0.035900
     12 C12          0.6870     2.5140     0.6730 c3         1 XMS      -0.209400
     13 C13          1.9050     3.2750     0.1260 c          1 XMS       0.715000
     14 O14          1.7100     4.1380    -0.7170 o          1 XMS      -0.730000
     15 O15          3.0140     2.9680     0.5350 o          1 XMS      -0.730000
     16 C16          1.4020     0.2210    -0.2290 ca         1 XMS      -0.025300
     17 C17          1.6270    -0.5340     0.9410 ca         1 XMS      -0.092500
     18 C18          2.6000    -1.5490     0.9570 ca         1 XMS      -0.114000
     19 C19          3.3530    -1.8180    -0.1960 ca         1 XMS       0.107000
     20 Cl20         4.5690    -3.0880    -0.1760 cl         1 XMS      -0.249000
     21 C21          3.1340    -1.0750    -1.3670 ca         1 XMS      -0.114000
     22 C22          2.1610    -0.0600    -1.3850 ca         1 XMS      -0.092500
     23 H11          0.2930     1.7350    -1.2710 hc         1 XMS       0.087700
     24 H1          -6.5780    -1.8730     1.0000 h1         1 XMS       0.052367
     25 H1A         -5.2490    -1.8860     2.1980 h1         1 XMS       0.052367
     26 H1B         -6.0420    -0.3430     1.7570 h1         1 XMS       0.052367
     27 H6          -1.2670    -0.0180    -2.0400 ha         1 XMS       0.137000
     28 H8          -1.1700     1.2310     2.1350 ha         1 XMS       0.125000
     29 H9          -3.4030     0.1870     2.4890 ha         1 XMS       0.113000
     30 H12         -0.1930     3.1690     0.6480 hc         1 XMS       0.026200
     31 H12A         0.9060     2.1080     1.6670 hc         1 XMS       0.026200
     32 H17          1.0470    -0.3370     1.8400 ha         1 XMS       0.130000
     33 H18          2.7690    -2.1270     1.8630 ha         1 XMS       0.115000
     34 H21          3.7160    -1.2860    -2.2600 ha         1 XMS       0.115000
     35 H22          2.0000     0.5080    -2.2990 ha         1 XMS       0.130000
@<TRIPOS>BOND
     1     1     2 1   
     2     1    24 1   
     3     1    25 1   
     4     1    26 1   
     5     2     3 1   
     6     2    10 1   
     7     3     4 2   
     8     4     5 1   
     9     5     6 ar  
    10     5    10 ar  
    11     6     7 ar  
    12     6    27 1   
    13     7     8 ar  
    14     7    11 1   
    15     8     9 ar  
    16     8    28 1   
    17     9    10 ar  
    18     9    29 1   
    19    11    12 1   
    20    11    16 1   
    21    11    23 1   
    22    12    13 1   
    23    12    30 1   
    24    12    31 1   
    25    13    14 1   
    26    13    15 1   
    27    16    17 ar  
    28    16    22 ar  
    29    17    18 ar  
    30    17    32 1   
    31    18    19 ar  
    32    18    33 1   
    33    19    20 1   
    34    19    21 ar  
    35    21    22 ar  
    36    21    34 1   
    37    22    35 1   
@<TRIPOS>SUBSTRUCTURE
     1 XMS         1 TEMP              0 ****  ****    0 ROOT
