@<TRIPOS>MOLECULE
XMU
   68    72     1     0     0
SMALL
abcg2


@<TRIPOS>ATOM
      1 C10        -30.5460   -14.8650    17.4210 c3         1 XMU       0.197100
      2 C12        -29.5700   -13.0630    15.9390 ca         1 XMU      -0.111000
      3 C13        -28.5320   -12.5330    15.1930 ca         1 XMU      -0.078500
      4 C14        -23.5210   -12.9820    12.7390 ca         1 XMU      -0.108300
      5 C15        -23.8510   -14.3070    12.5240 ca         1 XMU      -0.105000
      6 C16        -23.5250   -14.9690    11.3280 ca         1 XMU      -0.159000
      7 C17        -22.8600   -14.3200    10.3090 ca         1 XMU      -0.070000
      8 C01        -22.5740   -12.3700    14.9670 c3         1 XMU      -0.106100
      9 C02        -23.7880   -12.2710    14.0470 c3         1 XMU       0.172000
     10 C04        -26.2050   -12.5470    14.3300 c          1 XMU       0.606700
     11 C06        -27.2940   -13.1710    15.1400 ca         1 XMU      -0.136600
     12 C07        -27.1330   -14.3720    15.8260 ca         1 XMU      -0.078500
     13 C08        -28.1810   -14.9080    16.5600 ca         1 XMU      -0.111000
     14 C09        -29.4110   -14.2620    16.6330 ca         1 XMU      -0.079300
     15 C18        -22.5190   -12.9730    10.4840 ca         1 XMU      -0.081800
     16 C19        -21.8360   -12.0100     9.6700 cc         1 XMU      -0.141400
     17 C20        -21.2990   -12.2880     8.3370 ca         1 XMU       0.011200
     18 C21        -19.9700   -12.0460     7.9900 ca         1 XMU      -0.044000
     19 C22        -19.5200   -12.3800     6.7280 ca         1 XMU      -0.146000
     20 C23        -20.4070   -12.9590     5.8220 ca         1 XMU       0.304300
     21 C24        -19.9710   -13.3110     4.4240 c3         1 XMU       0.120500
     22 C26        -18.5820   -15.1930     4.9790 c6         1 XMU       0.129800
     23 C27        -17.1590   -15.7160     4.9460 c6         1 XMU       0.152600
     24 C29        -16.6950   -14.4620     3.0480 c6         1 XMU       0.152600
     25 C30        -18.1080   -13.9100     3.0310 c6         1 XMU       0.129800
     26 C32        -22.0970   -12.8690     7.3570 ca         1 XMU       0.319900
     27 C33        -21.7770   -10.8450    10.4040 cd         1 XMU      -0.059300
     28 C34        -21.2490    -9.4640    10.0910 c          1 XMU       0.725200
     29 C38        -22.8490   -12.3320    11.6980 ca         1 XMU      -0.052200
     30 N03        -24.9470   -12.7950    14.7380 ns         1 XMU      -0.502900
     31 N11        -31.3130   -13.8540    18.1260 n8         1 XMU      -0.998200
     32 N25        -18.6380   -13.8710     4.3810 n3         1 XMU      -0.716600
     33 N31        -21.6730   -13.1980     6.1410 nb         1 XMU      -0.696000
     34 N37        -22.3820   -11.0560    11.6110 na         1 XMU      -0.196700
     35 O05        -26.4550   -11.8390    13.3640 o          1 XMU      -0.580100
     36 O28        -16.6460   -15.7440     3.6330 os         1 XMU      -0.461000
     37 O35        -20.7950    -9.2800     8.9500 o          1 XMU      -0.702000
     38 O36        -21.3380    -8.6430    11.0250 o          1 XMU      -0.702000
     39 H101       -31.2200   -15.3700    16.7230 h1         1 XMU       0.032700
     40 H102       -30.1400   -15.6530    18.0690 h1         1 XMU       0.032700
     41 H121       -30.5150   -12.5390    15.9880 ha         1 XMU       0.117000
     42 H131       -28.6800   -11.6050    14.6560 ha         1 XMU       0.124500
     43 H151       -24.3760   -14.8540    13.2970 ha         1 XMU       0.088000
     44 H161       -23.8030   -16.0090    11.2120 ha         1 XMU       0.091000
     45 H171       -22.6070   -14.8430     9.3950 ha         1 XMU       0.107000
     46 H012       -22.7340   -11.8060    15.8870 hc         1 XMU       0.041700
     47 H013       -22.3670   -13.4090    15.2270 hc         1 XMU       0.041700
     48 H011       -21.6920   -11.9660    14.4730 hc         1 XMU       0.041700
     49 H021       -23.9740   -11.2120    13.8410 h1         1 XMU       0.070700
     50 H071       -26.1980   -14.9190    15.7860 ha         1 XMU       0.124500
     51 H081       -28.0350   -15.8440    17.0860 ha         1 XMU       0.117000
     52 H211       -19.2930   -11.6120     8.7130 ha         1 XMU       0.133000
     53 H221       -18.4910   -12.2100     6.4440 ha         1 XMU       0.121000
     54 H241       -19.9700   -12.3970     3.8200 h1         1 XMU       0.043700
     55 H242       -20.7260   -13.9770     3.9770 h1         1 XMU       0.043700
     56 H272       -17.1250   -16.7360     5.3320 h1         1 XMU       0.045450
     57 H271       -16.5290   -15.0880     5.5920 h1         1 XMU       0.045450
     58 H291       -16.3160   -14.5530     2.0290 h1         1 XMU       0.045450
     59 H292       -16.0400   -13.7660     3.5910 h1         1 XMU       0.045450
     60 H302       -18.0880   -12.8970     2.6200 h1         1 XMU       0.041950
     61 H301       -18.7350   -14.5220     2.3610 h1         1 XMU       0.041950
     62 H321       -23.1420   -13.0760     7.5680 h4         1 XMU       0.015100
     63 H031       -24.7910   -13.3190    15.5830 hn         1 XMU       0.307500
     64 H112       -32.1270   -14.2820    18.5460 hn         1 XMU       0.394500
     65 H111       -30.7630   -13.4820    18.8900 hn         1 XMU       0.394500
     66 H371       -22.4680   -10.3210    12.2960 hn         1 XMU       0.368000
     67 H262       -19.2530   -15.8990     4.4580 h1         1 XMU       0.041950
     68 H261       -18.9120   -15.1430     6.0190 h1         1 XMU       0.041950
@<TRIPOS>BOND
     1     1    14 1   
     2     1    31 1   
     3     1    39 1   
     4     1    40 1   
     5     2     3 ar  
     6     2    14 ar  
     7     2    41 1   
     8     3    11 ar  
     9     3    42 1   
    10     4     5 ar  
    11     4     9 1   
    12     4    29 ar  
    13     5     6 ar  
    14     5    43 1   
    15     6     7 ar  
    16     6    44 1   
    17     7    15 ar  
    18     7    45 1   
    19     8     9 1   
    20     8    46 1   
    21     8    47 1   
    22     8    48 1   
    23     9    30 1   
    24     9    49 1   
    25    10    11 1   
    26    10    30 1   
    27    10    35 2   
    28    11    12 ar  
    29    12    13 ar  
    30    12    50 1   
    31    13    14 ar  
    32    13    51 1   
    33    15    16 1   
    34    15    29 ar  
    35    16    17 1   
    36    16    27 2   
    37    17    18 ar  
    38    17    26 ar  
    39    18    19 ar  
    40    18    52 1   
    41    19    20 ar  
    42    19    53 1   
    43    20    21 1   
    44    20    33 ar  
    45    21    32 1   
    46    21    54 1   
    47    21    55 1   
    48    22    23 1   
    49    22    32 1   
    50    22    67 1   
    51    22    68 1   
    52    23    36 1   
    53    23    56 1   
    54    23    57 1   
    55    24    25 1   
    56    24    36 1   
    57    24    58 1   
    58    24    59 1   
    59    25    32 1   
    60    25    60 1   
    61    25    61 1   
    62    26    33 ar  
    63    26    62 1   
    64    27    28 1   
    65    27    34 1   
    66    28    37 1   
    67    28    38 1   
    68    29    34 1   
    69    30    63 1   
    70    31    64 1   
    71    31    65 1   
    72    34    66 1   
@<TRIPOS>SUBSTRUCTURE
     1 XMU         1 TEMP              0 ****  ****    0 ROOT
