@<TRIPOS>MOLECULE
XMU
   68    72     1     0     0
SMALL
No Charge or Current Charge


@<TRIPOS>ATOM
      1 C10        -30.9350   -14.4910    16.2060 c3         1 XMU       0.197100
      2 C12        -29.3190   -12.5450    16.4660 ca         1 XMU      -0.111000
      3 C13        -28.0690   -11.9390    16.2530 ca         1 XMU      -0.078500
      4 C14        -22.8450   -12.9290    13.1420 ca         1 XMU      -0.108300
      5 C15        -22.5620   -14.3150    13.2260 ca         1 XMU      -0.105000
      6 C16        -22.0490   -15.0210    12.1130 ca         1 XMU      -0.159000
      7 C17        -21.8160   -14.3550    10.8950 ca         1 XMU      -0.070000
      8 C01        -22.4910   -12.2820    15.5860 c3         1 XMU      -0.106100
      9 C02        -23.4050   -12.1700    14.3470 c3         1 XMU       0.172000
     10 C04        -25.7080   -11.9300    15.3380 c          1 XMU       0.606700
     11 C06        -27.0460   -12.6140    15.5490 ca         1 XMU      -0.136600
     12 C07        -27.3130   -13.9190    15.0630 ca         1 XMU      -0.078500
     13 C08        -28.5650   -14.5200    15.2790 ca         1 XMU      -0.111000
     14 C09        -29.5770   -13.8390    15.9810 ca         1 XMU      -0.079300
     15 C18        -22.1130   -12.9880    10.8350 ca         1 XMU      -0.081800
     16 C19        -21.9840   -12.0610     9.7550 cc         1 XMU      -0.141400
     17 C20        -21.5030   -12.3470     8.4050 ca         1 XMU       0.011200
     18 C21        -20.3020   -11.7920     7.9290 ca         1 XMU      -0.044000
     19 C22        -19.8690   -12.1350     6.6370 ca         1 XMU      -0.146000
     20 C23        -20.6360   -13.0260     5.8600 ca         1 XMU       0.304300
     21 C24        -20.1760   -13.4160     4.4450 c3         1 XMU       0.120500
     22 C26        -18.7040   -15.3070     5.1470 c6         1 XMU       0.129800
     23 C27        -17.2760   -15.9220     5.0410 c6         1 XMU       0.152600
     24 C29        -16.9410   -14.8780     2.8950 c6         1 XMU       0.152600
     25 C30        -18.3630   -14.2420     2.9530 c6         1 XMU       0.129800
     26 C32        -22.2040   -13.2380     7.5650 ca         1 XMU       0.319900
     27 C33        -22.4390   -10.8140    10.1990 cd         1 XMU      -0.059300
     28 C34        -22.5590    -9.5370     9.4110 c          1 XMU       0.725200
     29 C38        -22.6070   -12.2940    11.9050 ca         1 XMU      -0.052200
     30 N03        -24.7560   -12.6410    14.6420 ns         1 XMU      -0.502900
     31 N11        -30.9980   -15.1820    17.5070 n8         1 XMU      -0.998200
     32 N25        -18.8220   -14.0360     4.3630 n3         1 XMU      -0.716600
     33 N31        -21.7920   -13.5750     6.3170 nb         1 XMU      -0.696000
     34 N37        -22.8120   -10.9610    11.5630 na         1 XMU      -0.196700
     35 O05        -25.4800   -10.8030    15.7580 o          1 XMU      -0.580100
     36 O28        -16.9090   -16.1120     3.6530 os         1 XMU      -0.461000
     37 O35        -22.2700    -9.5100     8.2230 o          1 XMU      -0.702000
     38 O36        -22.9750    -8.5500    10.0040 o          1 XMU      -0.702000
     39 H101       -31.7250   -13.7280    16.1710 h1         1 XMU       0.032700
     40 H102       -31.1330   -15.2210    15.4080 h1         1 XMU       0.032700
     41 H121       -30.0900   -12.0060    17.0120 ha         1 XMU       0.117000
     42 H131       -27.8980   -10.9370    16.6410 ha         1 XMU       0.124500
     43 H151       -22.7390   -14.8530    14.1550 ha         1 XMU       0.088000
     44 H161       -21.8350   -16.0840    12.1980 ha         1 XMU       0.091000
     45 H171       -21.4200   -14.8850    10.0320 ha         1 XMU       0.107000
     46 H012       -22.8660   -11.6540    16.4020 hc         1 XMU       0.041700
     47 H013       -22.4380   -13.3150    15.9490 hc         1 XMU       0.041700
     48 H011       -21.4760   -11.9490    15.3410 hc         1 XMU       0.041700
     49 H021       -23.4730   -11.1050    14.0920 h1         1 XMU       0.070700
     50 H071       -26.5620   -14.4830    14.5160 ha         1 XMU       0.124500
     51 H081       -28.7500   -15.5220    14.8970 ha         1 XMU       0.117000
     52 H211       -19.7210   -11.1140     8.5490 ha         1 XMU       0.133000
     53 H221       -18.9460   -11.7230     6.2390 ha         1 XMU       0.121000
     54 H241       -20.1940   -12.5020     3.8360 h1         1 XMU       0.043700
     55 H242       -20.9190   -14.0970     4.0050 h1         1 XMU       0.043700
     56 H272       -17.2460   -16.8920     5.5570 h1         1 XMU       0.045450
     57 H271       -16.5440   -15.2560     5.5210 h1         1 XMU       0.045450
     58 H291       -16.6680   -15.0890     1.8510 h1         1 XMU       0.045450
     59 H292       -16.2000   -14.1790     3.3080 h1         1 XMU       0.045450
     60 H302       -18.3440   -13.2830     2.4140 h1         1 XMU       0.041950
     61 H301       -19.0640   -14.8990     2.4160 h1         1 XMU       0.041950
     62 H321       -23.1290   -13.7020     7.9050 h4         1 XMU       0.015100
     63 H031       -25.0170   -13.5570    14.3090 hn         1 XMU       0.307500
     64 H112       -31.8910   -15.6840    17.5740 hn         1 XMU       0.394500
     65 H111       -30.2960   -15.9310    17.5130 hn         1 XMU       0.394500
     66 H371       -23.1870   -10.2250    12.1510 hn         1 XMU       0.368000
     67 H262       -19.4330   -16.0480     4.7850 h1         1 XMU       0.041950
     68 H261       -18.9280   -15.1290     6.2090 h1         1 XMU       0.041950
@<TRIPOS>BOND
     1     1    14 1   
     2     1    31 1   
     3     1    39 1   
     4     1    40 1   
     5     2     3 ar  
     6     2    14 ar  
     7     2    41 1   
     8     3    11 ar  
     9     3    42 1   
    10     4     5 ar  
    11     4     9 1   
    12     4    29 ar  
    13     5     6 ar  
    14     5    43 1   
    15     6     7 ar  
    16     6    44 1   
    17     7    15 ar  
    18     7    45 1   
    19     8     9 1   
    20     8    46 1   
    21     8    47 1   
    22     8    48 1   
    23     9    30 1   
    24     9    49 1   
    25    10    11 1   
    26    10    30 1   
    27    10    35 2   
    28    11    12 ar  
    29    12    13 ar  
    30    12    50 1   
    31    13    14 ar  
    32    13    51 1   
    33    15    16 1   
    34    15    29 ar  
    35    16    17 1   
    36    16    27 2   
    37    17    18 ar  
    38    17    26 ar  
    39    18    19 ar  
    40    18    52 1   
    41    19    20 ar  
    42    19    53 1   
    43    20    21 1   
    44    20    33 ar  
    45    21    32 1   
    46    21    54 1   
    47    21    55 1   
    48    22    23 1   
    49    22    32 1   
    50    22    67 1   
    51    22    68 1   
    52    23    36 1   
    53    23    56 1   
    54    23    57 1   
    55    24    25 1   
    56    24    36 1   
    57    24    58 1   
    58    24    59 1   
    59    25    32 1   
    60    25    60 1   
    61    25    61 1   
    62    26    33 ar  
    63    26    62 1   
    64    27    28 1   
    65    27    34 1   
    66    28    37 1   
    67    28    38 1   
    68    29    34 1   
    69    30    63 1   
    70    31    64 1   
    71    31    65 1   
    72    34    66 1   
@<TRIPOS>SUBSTRUCTURE
     1 XMU         1 TEMP              0 ****  ****    0 ROOT
