@<TRIPOS>MOLECULE
XMX
   33    35     1     0     0
SMALL
No Charge or Current Charge


@<TRIPOS>ATOM
      1 N1         -10.1070   -55.0280   -25.4100 nu         1 XMX      -0.925100
      2 N3         -10.7370   -52.3080   -24.8330 nc         1 XMX      -0.416300
      3 C4         -10.5960   -56.4630   -23.4990 ca         1 XMX      -0.163300
      4 C5         -11.9540   -56.8210   -23.6300 ca         1 XMX      -0.033000
      5 C6         -12.7550   -56.9870   -22.4880 ca         1 XMX      -0.187000
      6 C7          -9.7540   -56.2930   -24.7580 c3         1 XMX       0.302100
      7 C8          -9.5600   -54.4890   -26.5470 ca         1 XMX       0.664900
      8 C10         -8.3980   -53.6220   -28.8590 ca         1 XMX      -0.252000
      9 C13        -10.5710   -52.1940   -26.1430 cd         1 XMX       0.381500
     10 C15        -11.8360   -50.4520   -25.5950 cc         1 XMX       0.181900
     11 C1         -12.2030   -56.7970   -21.2150 ca         1 XMX       0.216000
     12 C2         -10.8550   -56.4430   -21.0710 ca         1 XMX      -0.250000
     13 C3         -10.0510   -56.2760   -22.2090 ca         1 XMX       0.181100
     14 F          -12.9750   -56.9570   -20.1180 f          1 XMX      -0.180000
     15 O1          -8.7430   -55.9300   -22.0460 oh         1 XMX      -0.525100
     16 N2          -8.8280   -55.3630   -27.2480 nb         1 XMX      -0.768000
     17 C9          -8.2570   -54.9330   -28.3900 ca         1 XMX       0.414900
     18 C11         -9.1670   -52.7110   -28.1260 ca         1 XMX       0.003000
     19 C12         -9.7830   -53.1520   -26.9390 ca         1 XMX      -0.292500
     20 C14        -11.2340   -51.0610   -26.6500 cd         1 XMX      -0.246000
     21 O2         -11.5580   -51.1790   -24.4640 os         1 XMX      -0.085700
     22 H1         -10.5380   -54.3210   -24.8180 hn         1 XMX       0.531000
     23 H2         -12.3860   -56.9680   -24.6180 ha         1 XMX       0.123000
     24 H3         -13.8020   -57.2620   -22.5890 ha         1 XMX       0.138000
     25 H4          -9.9480   -57.1370   -25.4350 h1         1 XMX       0.061700
     26 H5          -8.6820   -56.3120   -24.5160 h1         1 XMX       0.061700
     27 H6          -7.9090   -53.3210   -29.7820 ha         1 XMX       0.125000
     28 H7         -12.4490   -49.5660   -25.5030 h4         1 XMX       0.055100
     29 H8         -10.4470   -56.3010   -20.0750 ha         1 XMX       0.135000
     30 H9          -8.5640   -55.8430   -21.0860 ho         1 XMX       0.468000
     31 H10         -7.6640   -55.6610   -28.9420 h4         1 XMX       0.016100
     32 H11         -9.2710   -51.6860   -28.4760 ha         1 XMX       0.112000
     33 H12        -11.2730   -50.7340   -27.6810 ha         1 XMX       0.152000
@<TRIPOS>BOND
     1     1     6 1   
     2     1     7 1   
     3     1    22 1   
     4     2     9 2   
     5     2    21 1   
     6     3     4 ar  
     7     3     6 1   
     8     3    13 ar  
     9     4     5 ar  
    10     4    23 1   
    11     5    11 ar  
    12     5    24 1   
    13     6    25 1   
    14     6    26 1   
    15     7    16 ar  
    16     7    19 ar  
    17     8    17 ar  
    18     8    18 ar  
    19     8    27 1   
    20     9    19 1   
    21     9    20 1   
    22    10    20 2   
    23    10    21 1   
    24    10    28 1   
    25    11    12 ar  
    26    11    14 1   
    27    12    13 ar  
    28    12    29 1   
    29    13    15 1   
    30    15    30 1   
    31    16    17 ar  
    32    17    31 1   
    33    18    19 ar  
    34    18    32 1   
    35    20    33 1   
@<TRIPOS>SUBSTRUCTURE
     1 XMX         1 TEMP              0 ****  ****    0 ROOT
