@<TRIPOS>MOLECULE
XMX
   33    35     1     0     0
SMALL
abcg2


@<TRIPOS>ATOM
      1 N1         -10.2200   -55.0180   -25.3910 nu         1 XMX      -0.925100
      2 N3         -11.2930   -52.5340   -25.0800 nc         1 XMX      -0.416300
      3 C4         -10.7330   -56.5580   -23.5900 ca         1 XMX      -0.163300
      4 C5         -11.9640   -57.2000   -23.5060 ca         1 XMX      -0.033000
      5 C6         -12.6390   -57.3540   -22.2990 ca         1 XMX      -0.187000
      6 C7         -10.0400   -56.3830   -24.9120 c3         1 XMX       0.302100
      7 C8          -9.6010   -54.5210   -26.4820 ca         1 XMX       0.664900
      8 C10         -8.2880   -53.6250   -28.7370 ca         1 XMX      -0.252000
      9 C13        -10.6220   -52.2070   -26.1690 cd         1 XMX       0.381500
     10 C15        -11.6910   -50.3940   -25.5320 cc         1 XMX       0.181900
     11 C1         -12.0390   -56.8400   -21.1670 ca         1 XMX       0.216000
     12 C2         -10.8160   -56.1950   -21.1870 ca         1 XMX      -0.250000
     13 C3         -10.1640   -56.0550   -22.4100 ca         1 XMX       0.181100
     14 F          -12.6710   -56.9690   -19.9730 f          1 XMX      -0.180000
     15 O1          -8.9600   -55.4300   -22.5070 oh         1 XMX      -0.525100
     16 N2          -8.8100   -55.3640   -27.1700 nb         1 XMX      -0.768000
     17 C9          -8.1790   -54.9210   -28.2560 ca         1 XMX       0.414900
     18 C11         -9.1010   -52.7470   -28.0320 ca         1 XMX       0.003000
     19 C12         -9.7800   -53.1580   -26.8900 ca         1 XMX      -0.292500
     20 C14        -10.8530   -50.8300   -26.4950 cd         1 XMX      -0.246000
     21 O2         -11.9740   -51.3880   -24.6700 os         1 XMX      -0.085700
     22 H1         -10.8250   -54.3990   -24.8700 hn         1 XMX       0.531000
     23 H2         -12.4080   -57.5910   -24.4140 ha         1 XMX       0.123000
     24 H3         -13.5950   -57.8540   -22.2370 ha         1 XMX       0.138000
     25 H4         -10.4480   -57.0940   -25.6340 h1         1 XMX       0.061700
     26 H5          -8.9730   -56.5940   -24.8210 h1         1 XMX       0.061700
     27 H6          -7.7580   -53.3140   -29.6250 ha         1 XMX       0.125000
     28 H7         -12.1560   -49.4430   -25.3300 h4         1 XMX       0.055100
     29 H8         -10.3820   -55.8100   -20.2730 ha         1 XMX       0.135000
     30 H9          -8.6560   -55.1490   -21.6340 ho         1 XMX       0.468000
     31 H10         -7.5550   -55.6450   -28.7700 h4         1 XMX       0.016100
     32 H11         -9.2060   -51.7270   -28.3780 ha         1 XMX       0.112000
     33 H12        -10.4570   -50.2610   -27.3170 ha         1 XMX       0.152000
@<TRIPOS>BOND
     1     1     6 1   
     2     1     7 1   
     3     1    22 1   
     4     2     9 2   
     5     2    21 1   
     6     3     4 ar  
     7     3     6 1   
     8     3    13 ar  
     9     4     5 ar  
    10     4    23 1   
    11     5    11 ar  
    12     5    24 1   
    13     6    25 1   
    14     6    26 1   
    15     7    16 ar  
    16     7    19 ar  
    17     8    17 ar  
    18     8    18 ar  
    19     8    27 1   
    20     9    19 1   
    21     9    20 1   
    22    10    20 2   
    23    10    21 1   
    24    10    28 1   
    25    11    12 ar  
    26    11    14 1   
    27    12    13 ar  
    28    12    29 1   
    29    13    15 1   
    30    15    30 1   
    31    16    17 ar  
    32    17    31 1   
    33    18    19 ar  
    34    18    32 1   
    35    20    33 1   
@<TRIPOS>SUBSTRUCTURE
     1 XMX         1 TEMP              0 ****  ****    0 ROOT
