@<TRIPOS>MOLECULE
XMZ
   46    48     1     0     0
SMALL
abcg2


@<TRIPOS>ATOM
      1 C10        -21.7760   -12.6130     8.4770 ca         1 XMZ       0.052200
      2 C11        -22.1690   -12.2230     9.8370 cc         1 XMZ      -0.130400
      3 C12        -22.6220   -11.0100    10.2970 cd         1 XMZ      -0.064300
      4 C13        -22.9490    -9.7230     9.5840 c          1 XMZ       0.724200
      5 C17        -22.5100   -12.3460    12.0950 ca         1 XMZ      -0.064200
      6 C18        -22.5570   -12.8750    13.3930 ca         1 XMZ      -0.091300
      7 C19        -23.0440   -12.0290    14.5470 c3         1 XMZ      -0.007400
      8 C01        -25.5120   -15.4170     8.7330 c3         1 XMZ      -0.092100
      9 C02        -24.4100   -15.0320     7.7750 c3         1 XMZ       0.166600
     10 C04        -22.5520   -13.5370     7.7650 ca         1 XMZ       0.100100
     11 C05        -22.1270   -13.9540     6.5050 ca         1 XMZ       0.225900
     12 C07        -20.2730   -12.6390     6.6180 ca         1 XMZ       0.280900
     13 C08        -20.6000   -12.1550     7.8830 ca         1 XMZ      -0.054300
     14 C09        -19.6980   -11.1790     8.5700 c3         1 XMZ      -0.043800
     15 C20        -22.5830   -12.5300    15.9100 c3         1 XMZ      -0.083100
     16 C21        -24.5710   -11.9080    14.5170 c3         1 XMZ      -0.083100
     17 C22        -22.1700   -14.1990    13.5140 ca         1 XMZ      -0.120000
     18 C23        -21.7560   -14.9650    12.4080 ca         1 XMZ      -0.164000
     19 C24        -21.7150   -14.4290    11.1390 ca         1 XMZ      -0.067000
     20 C25        -22.0960   -13.0920    10.9720 ca         1 XMZ      -0.074800
     21 N06        -21.0090   -13.5090     5.9460 nb         1 XMZ      -0.665000
     22 N16        -22.8220   -11.0980    11.6470 na         1 XMZ      -0.198700
     23 O03        -23.6780   -13.9640     8.3600 os         1 XMZ      -0.319100
     24 O14        -23.3620    -8.8020    10.3170 o          1 XMZ      -0.705000
     25 O15        -22.7840    -9.7120     8.3520 o          1 XMZ      -0.705000
     26 H191       -22.6290   -11.0220    14.4150 hc         1 XMZ       0.046700
     27 H013       -26.0840   -16.2450     8.3150 hc         1 XMZ       0.042033
     28 H012       -25.1080   -15.7380     9.6930 hc         1 XMZ       0.042033
     29 H011       -26.2000   -14.5890     8.9050 hc         1 XMZ       0.042033
     30 H022       -24.8300   -14.7260     6.8110 h1         1 XMZ       0.022700
     31 H021       -23.7500   -15.8860     7.5910 h1         1 XMZ       0.022700
     32 H051       -22.7030   -14.6640     5.9230 h4         1 XMZ       0.000100
     33 H071       -19.3600   -12.3030     6.1360 h4         1 XMZ       0.001100
     34 H092       -20.1650   -10.1950     8.6170 hc         1 XMZ       0.047367
     35 H091       -19.4850   -11.4840     9.5950 hc         1 XMZ       0.047367
     36 H093       -18.7510   -11.0790     8.0410 hc         1 XMZ       0.047367
     37 H203       -22.8860   -11.8260    16.6870 hc         1 XMZ       0.029367
     38 H202       -23.0280   -13.4950    16.1570 hc         1 XMZ       0.029367
     39 H201       -21.4990   -12.6360    15.9600 hc         1 XMZ       0.029367
     40 H213       -24.9200   -11.2370    15.3040 hc         1 XMZ       0.029367
     41 H211       -24.9340   -11.5180    13.5650 hc         1 XMZ       0.029367
     42 H212       -25.0340   -12.8830    14.6780 hc         1 XMZ       0.029367
     43 H221       -22.1790   -14.6710    14.4880 ha         1 XMZ       0.089000
     44 H231       -21.4640   -15.9960    12.5670 ha         1 XMZ       0.088000
     45 H241       -21.3870   -15.0230    10.2950 ha         1 XMZ       0.104000
     46 H161       -23.1620   -10.3200    12.1890 hn         1 XMZ       0.365000
@<TRIPOS>BOND
     1     1     2 1   
     2     1    10 ar  
     3     1    13 ar  
     4     2     3 2   
     5     2    20 1   
     6     3     4 1   
     7     3    22 1   
     8     4    24 1   
     9     4    25 1   
    10     5     6 ar  
    11     5    20 ar  
    12     5    22 1   
    13     6     7 1   
    14     6    17 ar  
    15     7    15 1   
    16     7    16 1   
    17     7    26 1   
    18     8     9 1   
    19     8    27 1   
    20     8    28 1   
    21     8    29 1   
    22     9    23 1   
    23     9    30 1   
    24     9    31 1   
    25    10    11 ar  
    26    10    23 1   
    27    11    21 ar  
    28    11    32 1   
    29    12    13 ar  
    30    12    21 ar  
    31    12    33 1   
    32    13    14 1   
    33    14    34 1   
    34    14    35 1   
    35    14    36 1   
    36    15    37 1   
    37    15    38 1   
    38    15    39 1   
    39    16    40 1   
    40    16    41 1   
    41    16    42 1   
    42    17    18 ar  
    43    17    43 1   
    44    18    19 ar  
    45    18    44 1   
    46    19    20 ar  
    47    19    45 1   
    48    22    46 1   
@<TRIPOS>SUBSTRUCTURE
     1 XMZ         1 TEMP              0 ****  ****    0 ROOT
