@<TRIPOS>MOLECULE
XMZ
   46    48     1     0     0
SMALL
No Charge or Current Charge


@<TRIPOS>ATOM
      1 C10        -21.7300   -12.7930     8.5720 ca         1 XMZ       0.052200
      2 C11        -22.2030   -12.4200     9.9050 cc         1 XMZ      -0.130400
      3 C12        -22.9440   -11.2680    10.1850 cd         1 XMZ      -0.064300
      4 C13        -23.3870   -10.2080     9.2150 c          1 XMZ       0.724200
      5 C17        -22.6130   -12.4050    12.1160 ca         1 XMZ      -0.064200
      6 C18        -22.5930   -12.8370    13.4600 ca         1 XMZ      -0.091300
      7 C19        -23.2770   -12.0440    14.5810 c3         1 XMZ      -0.007400
      8 C01        -26.0510   -14.7900     8.0170 c3         1 XMZ      -0.092100
      9 C02        -24.7390   -14.5880     7.2430 c3         1 XMZ       0.166600
     10 C04        -22.5630   -13.5120     7.6880 ca         1 XMZ       0.100100
     11 C05        -22.0480   -13.8600     6.4130 ca         1 XMZ       0.225900
     12 C07        -20.0100   -12.8600     6.8630 ca         1 XMZ       0.280900
     13 C08        -20.4220   -12.4650     8.1520 ca         1 XMZ      -0.054300
     14 C09        -19.4680   -11.6990     9.0620 c3         1 XMZ      -0.043800
     15 C20        -22.2530   -11.5480    15.6260 c3         1 XMZ      -0.083100
     16 C21        -24.4110   -12.8630    15.2390 c3         1 XMZ      -0.083100
     17 C22        -21.9080   -14.0460    13.7400 ca         1 XMZ      -0.120000
     18 C23        -21.2750   -14.7810    12.7110 ca         1 XMZ      -0.164000
     19 C24        -21.3150   -14.3210    11.3810 ca         1 XMZ      -0.067000
     20 C25        -21.9970   -13.1250    11.1300 ca         1 XMZ      -0.074800
     21 N06        -20.7970   -13.5450     6.0020 nb         1 XMZ      -0.665000
     22 N16        -23.2080   -11.2650    11.5820 na         1 XMZ      -0.198700
     23 O03        -23.8420   -13.8590     8.0950 os         1 XMZ      -0.319100
     24 O14        -24.0380    -9.2740     9.6650 o          1 XMZ      -0.705000
     25 O15        -23.0880   -10.2840     8.0310 o          1 XMZ      -0.705000
     26 H191       -23.7480   -11.1480    14.1630 hc         1 XMZ       0.046700
     27 H013       -26.7710   -15.3450     7.4040 hc         1 XMZ       0.042033
     28 H012       -25.8730   -15.3580     8.9380 hc         1 XMZ       0.042033
     29 H011       -26.4970   -13.8230     8.2800 hc         1 XMZ       0.042033
     30 H022       -24.9400   -14.0280     6.3200 h1         1 XMZ       0.022700
     31 H021       -24.3160   -15.5660     6.9790 h1         1 XMZ       0.022700
     32 H051       -22.6450   -14.4140     5.6910 h4         1 XMZ       0.000100
     33 H071       -19.0090   -12.6230     6.5040 h4         1 XMZ       0.001100
     34 H092       -19.8980   -10.7370     9.3620 hc         1 XMZ       0.047367
     35 H091       -19.2510   -12.2700     9.9730 hc         1 XMZ       0.047367
     36 H093       -18.5120   -11.4930     8.5660 hc         1 XMZ       0.047367
     37 H203       -22.7430   -10.9190    16.3790 hc         1 XMZ       0.029367
     38 H202       -21.7740   -12.3890    16.1430 hc         1 XMZ       0.029367
     39 H201       -21.4700   -10.9520    15.1420 hc         1 XMZ       0.029367
     40 H213       -24.9410   -12.2580    15.9840 hc         1 XMZ       0.029367
     41 H211       -25.1370   -13.1850    14.4830 hc         1 XMZ       0.029367
     42 H212       -24.0170   -13.7550    15.7400 hc         1 XMZ       0.029367
     43 H221       -21.8630   -14.4210    14.7600 ha         1 XMZ       0.089000
     44 H231       -20.7540   -15.7060    12.9480 ha         1 XMZ       0.088000
     45 H241       -20.8340   -14.8740    10.5780 ha         1 XMZ       0.104000
     46 H161       -23.7280   -10.5530    12.0830 hn         1 XMZ       0.365000
@<TRIPOS>BOND
     1     1     2 1   
     2     1    10 ar  
     3     1    13 ar  
     4     2     3 2   
     5     2    20 1   
     6     3     4 1   
     7     3    22 1   
     8     4    24 1   
     9     4    25 1   
    10     5     6 ar  
    11     5    20 ar  
    12     5    22 1   
    13     6     7 1   
    14     6    17 ar  
    15     7    15 1   
    16     7    16 1   
    17     7    26 1   
    18     8     9 1   
    19     8    27 1   
    20     8    28 1   
    21     8    29 1   
    22     9    23 1   
    23     9    30 1   
    24     9    31 1   
    25    10    11 ar  
    26    10    23 1   
    27    11    21 ar  
    28    11    32 1   
    29    12    13 ar  
    30    12    21 ar  
    31    12    33 1   
    32    13    14 1   
    33    14    34 1   
    34    14    35 1   
    35    14    36 1   
    36    15    37 1   
    37    15    38 1   
    38    15    39 1   
    39    16    40 1   
    40    16    41 1   
    41    16    42 1   
    42    17    18 ar  
    43    17    43 1   
    44    18    19 ar  
    45    18    44 1   
    46    19    20 ar  
    47    19    45 1   
    48    22    46 1   
@<TRIPOS>SUBSTRUCTURE
     1 XMZ         1 TEMP              0 ****  ****    0 ROOT
