@<TRIPOS>MOLECULE
XN1
   95    99     1     0     0
SMALL
No Charge or Current Charge


@<TRIPOS>ATOM
      1 N1          -0.0890     2.1600    -5.5050 n3         1 XN1      -0.729600
      2 C1           0.2230     1.0140    -4.6040 c6         1 XN1       0.169800
      3 C2          -0.5300     1.0570    -3.2250 c6         1 XN1       0.114500
      4 C3          -0.0370    -0.2200    -2.4570 c          1 XN1       0.596100
      5 O1           0.6290    -0.1620    -1.4310 o          1 XN1      -0.592100
      6 N2          -0.4910    -1.4240    -2.9800 ns         1 XN1      -0.509900
      7 C4          -0.2650    -2.7720    -2.4420 c3         1 XN1       0.137400
      8 C5          -0.8960    -3.7700    -3.4400 c3         1 XN1      -0.104100
      9 C6           1.2500    -3.0780    -2.3180 c3         1 XN1      -0.104100
     10 C7          -0.9670    -2.9130    -1.0720 c3         1 XN1      -0.104100
     11 N3          -0.4550     2.4150    -2.5170 n3         1 XN1      -0.714600
     12 C8          -0.6990     3.5260    -3.4960 c6         1 XN1       0.184800
     13 C9           0.1590     3.4390    -4.7880 c6         1 XN1       0.163800
     14 C10         -1.3960     2.5940    -1.3580 c3         1 XN1       0.147800
     15 C11         -1.1860     1.7700    -0.0500 c3         1 XN1       0.160300
     16 O2           0.1870     1.8340     0.3580 oh         1 XN1      -0.638000
     17 C12         -2.0930     2.2780     1.1030 c3         1 XN1      -0.107400
     18 C13         -1.9160     1.5480     2.4730 c3         1 XN1      -0.130700
     19 C14         -2.9590     1.9850     3.5480 c3         1 XN1      -0.006400
     20 C15         -2.7540     1.2080     4.8540 ca         1 XN1      -0.089300
     21 C16         -3.6790     0.2150     5.2360 ca         1 XN1      -0.104500
     22 C17         -3.5070    -0.4970     6.4350 ca         1 XN1      -0.118500
     23 C18         -2.4080    -0.2220     7.2650 ca         1 XN1      -0.112000
     24 C19         -1.4750     0.7570     6.8880 ca         1 XN1      -0.118500
     25 C20         -1.6440     1.4660     5.6860 ca         1 XN1      -0.104500
     26 C21         -1.9490     0.0150     2.3020 c          1 XN1       0.605100
     27 O3          -2.9320    -0.5740     1.8690 o          1 XN1      -0.621100
     28 N4          -0.7880    -0.6370     2.6710 ns         1 XN1      -0.487900
     29 C22         -0.7430    -2.1040     2.5810 c5         1 XN1       0.119000
     30 C23         -1.1120    -2.6830     4.0240 c5         1 XN1       0.155300
     31 O4          -0.6580    -1.8610     5.1110 oh         1 XN1      -0.659000
     32 C24         -0.3770    -4.0820     4.0650 c5         1 XN1      -0.031100
     33 C25          0.8220    -3.8010     3.1930 ca         1 XN1      -0.075300
     34 C26          2.0230    -4.5270     3.1470 ca         1 XN1      -0.102000
     35 C27          3.0370    -4.1100     2.2610 ca         1 XN1      -0.110000
     36 C28          2.8390    -2.9800     1.4390 ca         1 XN1      -0.111000
     37 C29          1.6270    -2.2650     1.4990 ca         1 XN1      -0.077000
     38 C30          0.6280    -2.6980     2.3870 ca         1 XN1      -0.112300
     39 C31          0.5590     2.0750    -6.8380 c3         1 XN1       0.228100
     40 C32          2.0820     2.0880    -6.8000 ca         1 XN1      -0.178300
     41 C33          2.7830     3.3070    -6.8760 ca         1 XN1       0.344900
     42 N5           4.1350     3.3900    -6.8600 nb         1 XN1      -0.665000
     43 C34          4.8350     2.2350    -6.7700 ca         1 XN1       0.339900
     44 C35          4.2200     0.9740    -6.7000 ca         1 XN1      -0.162000
     45 C36          2.8190     0.8920    -6.7180 ca         1 XN1      -0.062000
     46 C37         -2.9680     3.5110     3.8160 c3         1 XN1      -0.085100
     47 H11A        -0.0130     0.0710    -5.1170 h1         1 XN1       0.053700
     48 H12          1.3030     0.9940    -4.3910 h1         1 XN1       0.053700
     49 H2          -1.5880     0.8620    -3.4510 h1         1 XN1       0.028700
     50 HN2         -1.0710    -1.3540    -3.8070 hn         1 XN1       0.307500
     51 H51         -0.7740    -4.8030    -3.0900 hc         1 XN1       0.045478
     52 H52         -1.9700    -3.5810    -3.5600 hc         1 XN1       0.045478
     53 H53         -0.4240    -3.6890    -4.4270 hc         1 XN1       0.045478
     54 H61          1.7600    -2.9110    -3.2740 hc         1 XN1       0.045478
     55 H62          1.7330    -2.4510    -1.5610 hc         1 XN1       0.045478
     56 H63          1.4110    -4.1220    -2.0260 hc         1 XN1       0.045478
     57 H71         -2.0440    -2.7280    -1.1620 hc         1 XN1       0.045478
     58 H72         -0.8280    -3.9210    -0.6620 hc         1 XN1       0.045478
     59 H73         -0.5660    -2.1990    -0.3470 hc         1 XN1       0.045478
     60 H81         -1.7580     3.5340    -3.7940 h1         1 XN1       0.035200
     61 H82         -0.4990     4.4970    -3.0180 h1         1 XN1       0.035200
     62 H91         -0.0920     4.2940    -5.4330 h1         1 XN1       0.046700
     63 H92          1.2200     3.5360    -4.5150 h1         1 XN1       0.046700
     64 H101        -2.4240     2.4110    -1.7010 h1         1 XN1       0.032700
     65 H102        -1.3660     3.6500    -1.0570 h1         1 XN1       0.032700
     66 H11         -1.4680     0.7300    -0.2640 h1         1 XN1       0.099700
     67 HO2          0.6570     1.2830    -0.3150 ho         1 XN1       0.426000
     68 H121        -3.1390     2.1850     0.7830 hc         1 XN1       0.053700
     69 H122        -1.9030     3.3490     1.2410 hc         1 XN1       0.053700
     70 H13         -0.9250     1.8170     2.8570 hc         1 XN1       0.069700
     71 H141        -3.9530     1.7400     3.1520 hc         1 XN1       0.070700
     72 H16         -4.5370    -0.0060     4.6040 ha         1 XN1       0.118500
     73 H17         -4.2280    -1.2590     6.7220 ha         1 XN1       0.117000
     74 H18         -2.2760    -0.7720     8.1950 ha         1 XN1       0.117000
     75 H19         -0.6200     0.9670     7.5260 ha         1 XN1       0.117000
     76 H20         -0.9110     2.2200     5.4080 ha         1 XN1       0.118500
     77 HN4         -0.0180    -0.0730     3.0060 hn         1 XN1       0.327500
     78 H22         -1.4230    -2.5120     1.8200 h1         1 XN1       0.091700
     79 H23         -2.1990    -2.8200     4.1130 h1         1 XN1       0.045700
     80 HO4         -1.2620    -1.0880     5.1540 ho         1 XN1       0.449000
     81 H241        -0.1100    -4.3870     5.0830 hc         1 XN1       0.062200
     82 H242        -1.0030    -4.8730     3.6360 hc         1 XN1       0.062200
     83 H26          2.1690    -5.3960     3.7840 ha         1 XN1       0.111000
     84 H27          3.9740    -4.6600     2.2120 ha         1 XN1       0.108000
     85 H28          3.6230    -2.6610     0.7560 ha         1 XN1       0.118000
     86 H29          1.4670    -1.3960     0.8660 ha         1 XN1       0.141000
     87 H311         0.2320     1.1570    -7.3460 h1         1 XN1       0.058700
     88 H312         0.2170     2.9080    -7.4670 h1         1 XN1       0.058700
     89 H33          2.2470     4.2530    -6.9510 h4         1 XN1       0.015100
     90 H34          5.9200     2.3250    -6.7590 h4         1 XN1       0.019100
     91 H35          4.8290     0.0760    -6.6340 ha         1 XN1       0.125000
     92 H36          2.3200    -0.0740    -6.6690 ha         1 XN1       0.117000
     93 H371        -1.9640     3.8810     4.0560 hc         1 XN1       0.037367
     94 H372        -3.3370     4.0630     2.9440 hc         1 XN1       0.037367
     95 H373        -3.6300     3.7460     4.6580 hc         1 XN1       0.037367
@<TRIPOS>BOND
     1     1     2 1   
     2     1    13 1   
     3     1    39 1   
     4     2     3 1   
     5     2    47 1   
     6     2    48 1   
     7     3     4 1   
     8     3    11 1   
     9     3    49 1   
    10     4     5 2   
    11     4     6 1   
    12     6     7 1   
    13     6    50 1   
    14     7     8 1   
    15     7     9 1   
    16     7    10 1   
    17     8    51 1   
    18     8    52 1   
    19     8    53 1   
    20     9    54 1   
    21     9    55 1   
    22     9    56 1   
    23    10    57 1   
    24    10    58 1   
    25    10    59 1   
    26    11    12 1   
    27    11    14 1   
    28    12    13 1   
    29    12    60 1   
    30    12    61 1   
    31    13    62 1   
    32    13    63 1   
    33    14    15 1   
    34    14    64 1   
    35    14    65 1   
    36    15    16 1   
    37    15    17 1   
    38    15    66 1   
    39    16    67 1   
    40    17    18 1   
    41    17    68 1   
    42    17    69 1   
    43    18    19 1   
    44    18    26 1   
    45    18    70 1   
    46    19    20 1   
    47    19    46 1   
    48    19    71 1   
    49    20    21 ar  
    50    20    25 ar  
    51    21    22 ar  
    52    21    72 1   
    53    22    23 ar  
    54    22    73 1   
    55    23    24 ar  
    56    23    74 1   
    57    24    25 ar  
    58    24    75 1   
    59    25    76 1   
    60    26    27 2   
    61    26    28 1   
    62    28    29 1   
    63    28    77 1   
    64    29    30 1   
    65    29    38 1   
    66    29    78 1   
    67    30    31 1   
    68    30    32 1   
    69    30    79 1   
    70    31    80 1   
    71    32    33 1   
    72    32    81 1   
    73    32    82 1   
    74    33    34 ar  
    75    33    38 ar  
    76    34    35 ar  
    77    34    83 1   
    78    35    36 ar  
    79    35    84 1   
    80    36    37 ar  
    81    36    85 1   
    82    37    38 ar  
    83    37    86 1   
    84    39    40 1   
    85    39    87 1   
    86    39    88 1   
    87    40    41 ar  
    88    40    45 ar  
    89    41    42 ar  
    90    41    89 1   
    91    42    43 ar  
    92    43    44 ar  
    93    43    90 1   
    94    44    45 ar  
    95    44    91 1   
    96    45    92 1   
    97    46    93 1   
    98    46    94 1   
    99    46    95 1   
@<TRIPOS>SUBSTRUCTURE
     1 XN1         1 TEMP              0 ****  ****    0 ROOT
