@<TRIPOS>MOLECULE
XN1
   95    99     1     0     0
SMALL
bcc


@<TRIPOS>ATOM
      1 N1           0.5180     2.1610    -5.2320 n3         1 XN1      -0.729600
      2 C1           0.5140     0.8800    -4.5630 c6         1 XN1       0.169800
      3 C2          -0.6800     0.7740    -3.6150 c6         1 XN1       0.114500
      4 C3          -0.5500    -0.5540    -2.8630 c          1 XN1       0.663100
      5 O1           0.4000    -0.7640    -2.1220 o          1 XN1      -0.592100
      6 N2          -1.5260    -1.4350    -3.1130 ns         1 XN1      -0.576900
      7 C4          -1.6760    -2.7750    -2.5300 c3         1 XN1       0.137400
      8 C5          -2.9490    -3.3580    -3.1410 c3         1 XN1      -0.104100
      9 C6          -0.4860    -3.6650    -2.8900 c3         1 XN1      -0.104100
     10 C7          -1.8390    -2.6810    -1.0130 c3         1 XN1      -0.104100
     11 N3          -0.6760     1.8710    -2.6680 n3         1 XN1      -0.714600
     12 C8          -0.5820     3.1610    -3.3250 c6         1 XN1       0.184800
     13 C9           0.6110     3.2250    -4.2550 c6         1 XN1       0.163800
     14 C10         -1.7670     1.8230    -1.7050 c3         1 XN1       0.147800
     15 C11         -1.2870     1.6690    -0.2650 c3         1 XN1       0.137100
     16 O2          -0.3520     2.6680     0.0890 oh         1 XN1      -0.575800
     17 C12         -2.4780     1.6550     0.6920 c3         1 XN1      -0.107400
     18 C13         -2.1000     1.2700     2.1230 c3         1 XN1      -0.130700
     19 C14         -3.1800     1.6290     3.1710 c3         1 XN1      -0.006400
     20 C15         -2.7640     1.0880     4.5220 ca         1 XN1      -0.089300
     21 C16         -3.4070    -0.0110     5.0840 ca         1 XN1      -0.122500
     22 C17         -2.9970    -0.5390     6.3020 ca         1 XN1      -0.136500
     23 C18         -1.9310     0.0320     6.9850 ca         1 XN1      -0.130000
     24 C19         -1.2830     1.1340     6.4390 ca         1 XN1      -0.136500
     25 C20         -1.6930     1.6520     5.2180 ca         1 XN1      -0.122500
     26 C21         -1.8720    -0.2330     2.1930 c          1 XN1       0.672100
     27 O3          -2.7760    -1.0200     1.9580 o          1 XN1      -0.621100
     28 N4          -0.6330    -0.6200     2.5500 ns         1 XN1      -0.554900
     29 C22         -0.2540    -1.9850     2.7880 c5         1 XN1       0.119000
     30 C23         -0.0620    -2.3310     4.2890 c5         1 XN1       0.132100
     31 O4           0.5630    -1.2740     4.9760 oh         1 XN1      -0.596800
     32 C24          0.9090    -3.5150     4.2560 c5         1 XN1      -0.031100
     33 C25          1.7320    -3.2580     3.0230 ca         1 XN1      -0.075300
     34 C26          2.9620    -3.7790     2.6580 ca         1 XN1      -0.120000
     35 C27          3.5180    -3.4000     1.4380 ca         1 XN1      -0.128000
     36 C28          2.8470    -2.5180     0.5980 ca         1 XN1      -0.129000
     37 C29          1.6100    -1.9970     0.9650 ca         1 XN1      -0.095000
     38 C30          1.0680    -2.3730     2.1810 ca         1 XN1      -0.112300
     39 C31          1.4830     2.2560    -6.3140 c3         1 XN1       0.228100
     40 C32          2.9300     2.1170    -5.9050 ca         1 XN1      -0.243600
     41 C33          3.6780     3.2290    -5.5240 ca         1 XN1       0.410200
     42 N5           4.9370     3.1770    -5.1080 nb         1 XN1      -0.665000
     43 C34          5.5220     1.9860    -5.0520 ca         1 XN1       0.405200
     44 C35          4.8820     0.8110    -5.4180 ca         1 XN1      -0.245300
     45 C36          3.5680     0.8830    -5.8520 ca         1 XN1      -0.080000
     46 C37         -3.4520     3.1300     3.2370 c3         1 XN1      -0.085100
     47 H11A         0.4420     0.0820    -5.3090 h1         1 XN1       0.053700
     48 H12          1.4350     0.7100    -3.9850 h1         1 XN1       0.053700
     49 H2          -1.6010     0.7720    -4.2260 h1         1 XN1       0.028700
     50 HN2         -2.2600    -1.1340    -3.7350 hn         1 XN1       0.307500
     51 H51         -3.1200    -4.3650    -2.7620 hc         1 XN1       0.045478
     52 H52         -3.8220    -2.7520    -2.8880 hc         1 XN1       0.045478
     53 H53         -2.8770    -3.4180    -4.2290 hc         1 XN1       0.045478
     54 H61         -0.3460    -3.7100    -3.9720 hc         1 XN1       0.045478
     55 H62          0.4360    -3.3080    -2.4370 hc         1 XN1       0.045478
     56 H63         -0.6650    -4.6810    -2.5330 hc         1 XN1       0.045478
     57 H71         -2.6530    -2.0060    -0.7470 hc         1 XN1       0.045478
     58 H72         -2.0660    -3.6660    -0.6000 hc         1 XN1       0.045478
     59 H73         -0.9310    -2.3220    -0.5330 hc         1 XN1       0.045478
     60 H81         -1.4940     3.3970    -3.8980 h1         1 XN1       0.035200
     61 H82         -0.4750     3.9340    -2.5620 h1         1 XN1       0.035200
     62 H91          0.6120     4.1890    -4.7700 h1         1 XN1       0.046700
     63 H92          1.5370     3.1710    -3.6610 h1         1 XN1       0.046700
     64 H101        -2.4550     0.9990    -1.9270 h1         1 XN1       0.032700
     65 H102        -2.3800     2.7310    -1.7830 h1         1 XN1       0.032700
     66 H11         -0.7350     0.7270    -0.1910 h1         1 XN1       0.099700
     67 HO2         -0.8080     3.5170     0.1000 ho         1 XN1       0.387000
     68 H121        -3.2470     0.9700     0.3230 hc         1 XN1       0.053700
     69 H122        -2.9350     2.6490     0.6770 hc         1 XN1       0.053700
     70 H13         -1.1830     1.8020     2.3990 hc         1 XN1       0.069700
     71 H141        -4.1060     1.1250     2.8790 hc         1 XN1       0.070700
     72 H16         -4.2360    -0.4680     4.5560 ha         1 XN1       0.136500
     73 H17         -3.5110    -1.3960     6.7170 ha         1 XN1       0.135000
     74 H18         -1.6080    -0.3770     7.9340 ha         1 XN1       0.135000
     75 H19         -0.4530     1.5900     6.9650 ha         1 XN1       0.135000
     76 H20         -1.1650     2.5050     4.8070 ha         1 XN1       0.136500
     77 HN4          0.0580     0.0930     2.7290 hn         1 XN1       0.327500
     78 H22         -1.0440    -2.6210     2.3790 h1         1 XN1       0.091700
     79 H23         -1.0180    -2.5920     4.7550 h1         1 XN1       0.045700
     80 HO4         -0.0950    -0.5940     5.1580 ho         1 XN1       0.410000
     81 H241         1.4930    -3.5950     5.1740 hc         1 XN1       0.062200
     82 H242         0.3490    -4.4490     4.1500 hc         1 XN1       0.062200
     83 H26          3.4900    -4.4660     3.3080 ha         1 XN1       0.129000
     84 H27          4.4820    -3.7950     1.1430 ha         1 XN1       0.126000
     85 H28          3.2890    -2.2360    -0.3490 ha         1 XN1       0.136000
     86 H29          1.0870    -1.3170     0.3040 ha         1 XN1       0.159000
     87 H311         1.2410     1.4850    -7.0510 h1         1 XN1       0.058700
     88 H312         1.3360     3.2210    -6.8050 h1         1 XN1       0.058700
     89 H33          3.2300     4.2170    -5.5720 h4         1 XN1       0.015100
     90 H34          6.5490     1.9640    -4.7050 h4         1 XN1       0.019100
     91 H35          5.4050    -0.1340    -5.3650 ha         1 XN1       0.143000
     92 H36          3.0450    -0.0160    -6.1580 ha         1 XN1       0.135000
     93 H371        -2.5450     3.6970     3.4540 hc         1 XN1       0.037367
     94 H372        -3.8620     3.5090     2.3020 hc         1 XN1       0.037367
     95 H373        -4.1770     3.3500     4.0210 hc         1 XN1       0.037367
@<TRIPOS>BOND
     1     1     2 1   
     2     1    13 1   
     3     1    39 1   
     4     2     3 1   
     5     2    47 1   
     6     2    48 1   
     7     3     4 1   
     8     3    11 1   
     9     3    49 1   
    10     4     5 2   
    11     4     6 1   
    12     6     7 1   
    13     6    50 1   
    14     7     8 1   
    15     7     9 1   
    16     7    10 1   
    17     8    51 1   
    18     8    52 1   
    19     8    53 1   
    20     9    54 1   
    21     9    55 1   
    22     9    56 1   
    23    10    57 1   
    24    10    58 1   
    25    10    59 1   
    26    11    12 1   
    27    11    14 1   
    28    12    13 1   
    29    12    60 1   
    30    12    61 1   
    31    13    62 1   
    32    13    63 1   
    33    14    15 1   
    34    14    64 1   
    35    14    65 1   
    36    15    16 1   
    37    15    17 1   
    38    15    66 1   
    39    16    67 1   
    40    17    18 1   
    41    17    68 1   
    42    17    69 1   
    43    18    19 1   
    44    18    26 1   
    45    18    70 1   
    46    19    20 1   
    47    19    46 1   
    48    19    71 1   
    49    20    21 ar  
    50    20    25 ar  
    51    21    22 ar  
    52    21    72 1   
    53    22    23 ar  
    54    22    73 1   
    55    23    24 ar  
    56    23    74 1   
    57    24    25 ar  
    58    24    75 1   
    59    25    76 1   
    60    26    27 2   
    61    26    28 1   
    62    28    29 1   
    63    28    77 1   
    64    29    30 1   
    65    29    38 1   
    66    29    78 1   
    67    30    31 1   
    68    30    32 1   
    69    30    79 1   
    70    31    80 1   
    71    32    33 1   
    72    32    81 1   
    73    32    82 1   
    74    33    34 ar  
    75    33    38 ar  
    76    34    35 ar  
    77    34    83 1   
    78    35    36 ar  
    79    35    84 1   
    80    36    37 ar  
    81    36    85 1   
    82    37    38 ar  
    83    37    86 1   
    84    39    40 1   
    85    39    87 1   
    86    39    88 1   
    87    40    41 ar  
    88    40    45 ar  
    89    41    42 ar  
    90    41    89 1   
    91    42    43 ar  
    92    43    44 ar  
    93    43    90 1   
    94    44    45 ar  
    95    44    91 1   
    96    45    92 1   
    97    46    93 1   
    98    46    94 1   
    99    46    95 1   
@<TRIPOS>SUBSTRUCTURE
     1 XN1         1 TEMP              0 ****  ****    0 ROOT
