@<TRIPOS>MOLECULE
XN2
   99   104     1     0     0
SMALL
abcg2


@<TRIPOS>ATOM
      1 N1          -0.2420     1.9970    -4.8420 n3         1 XN2      -0.732600
      2 C1          -0.3500     0.6830    -4.2510 c6         1 XN2       0.171800
      3 C2          -1.5050     0.6380    -3.2510 c6         1 XN2       0.115500
      4 C3          -1.5000    -0.7360    -2.5760 c          1 XN2       0.595100
      5 O1          -0.5520    -1.0920    -1.8920 o          1 XN2      -0.588100
      6 N2          -2.5910    -1.4790    -2.8110 ns         1 XN2      -0.508900
      7 C4          -2.9340    -2.7580    -2.1730 c3         1 XN2       0.135400
      8 C5          -4.2540    -3.2040    -2.8000 c3         1 XN2      -0.102767
      9 C6          -1.8660    -3.8170    -2.4410 c3         1 XN2      -0.102767
     10 C7          -3.1290    -2.5540    -0.6700 c3         1 XN2      -0.102767
     11 N3          -1.3320     1.6630    -2.2410 n3         1 XN2      -0.720600
     12 C8          -1.1670     2.9760    -2.8320 c6         1 XN2       0.186800
     13 C9          -0.0150     2.9900    -3.8140 c6         1 XN2       0.164800
     14 C10         -2.3240     1.6450    -1.1750 c3         1 XN2       0.152800
     15 C11         -1.6900     1.5020     0.2050 c3         1 XN2       0.159300
     16 O2          -0.7430     2.5200     0.4590 oh         1 XN2      -0.639000
     17 C12         -2.7620     1.4480     1.2920 c3         1 XN2      -0.104400
     18 C13         -2.1980     1.1690     2.6840 c3         1 XN2      -0.130700
     19 C14         -3.2500     1.3230     3.8100 c3         1 XN2      -0.007400
     20 C15         -2.7000     0.7750     5.1090 ca         1 XN2      -0.085300
     21 C16         -3.2160    -0.3920     5.6630 ca         1 XN2      -0.098500
     22 C17         -2.6730    -0.9360     6.8210 ca         1 XN2      -0.113500
     23 C18         -1.5980    -0.3180     7.4430 ca         1 XN2      -0.115000
     24 C19         -1.0770     0.8510     6.9030 ca         1 XN2      -0.113500
     25 C20         -1.6260     1.3920     5.7500 ca         1 XN2      -0.098500
     26 C21         -1.6570    -0.2510     2.7400 c          1 XN2       0.606100
     27 O3          -2.3590    -1.2130     2.4640 o          1 XN2      -0.624100
     28 N4          -0.3790    -0.3640     3.1350 ns         1 XN2      -0.474900
     29 C22          0.2530    -1.6190     3.4240 c5         1 XN2       0.161000
     30 C23          1.2010    -1.5460     4.6350 c5         1 XN2       0.150300
     31 O4           1.8980    -0.3230     4.5460 oh         1 XN2      -0.656000
     32 C24          2.1400    -2.7430     4.4140 c5         1 XN2      -0.061100
     33 C25          2.2250    -2.8330     2.9150 ca         1 XN2      -0.085300
     34 C26          3.1710    -3.4500     2.1130 ca         1 XN2      -0.102000
     35 C27          3.0170    -3.4010     0.7290 ca         1 XN2      -0.115000
     36 C28          1.9300    -2.7460     0.1610 ca         1 XN2      -0.106000
     37 C29          0.9780    -2.1280     0.9680 ca         1 XN2      -0.064000
     38 C30          1.1420    -2.1770     2.3400 ca         1 XN2      -0.103300
     39 C31          0.6830     2.0640    -5.9610 c3         1 XN2       0.226100
     40 C32          2.1260     1.7370    -5.6480 ca         1 XN2      -0.124300
     41 C33          2.6010     0.4400    -5.7930 ca         1 XN2      -0.099000
     42 C34          4.7270     1.0850    -4.9950 ca         1 XN2       0.057100
     43 C35          4.2690     2.3850    -4.8540 ca         1 XN2       0.051100
     44 C36          2.9840     2.7440    -5.1730 ca         1 XN2      -0.087000
     45 O5           6.0350     1.0280    -4.6380 os         1 XN2      -0.343100
     46 C38          6.3260     2.2810    -4.0370 c5         1 XN2       0.371600
     47 O6           5.2820     3.1700    -4.4060 os         1 XN2      -0.345100
     48 C37          3.9160     0.0850    -5.4690 ca         1 XN2      -0.095000
     49 C39         -3.7080     2.7720     3.9680 c3         1 XN2      -0.086100
     50 H11A        -0.5420    -0.0510    -5.0390 h1         1 XN2       0.053700
     51 H12          0.5740     0.3800    -3.7360 h1         1 XN2       0.053700
     52 H2          -2.4440     0.7760    -3.8170 h1         1 XN2       0.027700
     53 HN2         -3.3220    -1.0410    -3.3490 hn         1 XN2       0.304500
     54 H51         -4.5800    -4.1420    -2.3510 hc         1 XN2       0.045033
     55 H52         -5.0420    -2.4660    -2.6350 hc         1 XN2       0.045033
     56 H53         -4.1530    -3.3640    -3.8740 hc         1 XN2       0.045033
     57 H61         -1.7030    -3.9460    -3.5120 hc         1 XN2       0.045033
     58 H62         -0.9170    -3.5580    -1.9760 hc         1 XN2       0.045033
     59 H63         -2.1910    -4.7750    -2.0330 hc         1 XN2       0.045033
     60 H71         -3.8890    -1.7940    -0.4780 hc         1 XN2       0.045033
     61 H72         -3.4560    -3.4840    -0.2020 hc         1 XN2       0.045033
     62 H73         -2.2110    -2.2400    -0.1770 hc         1 XN2       0.045033
     63 H81         -2.0830     3.3110    -3.3480 h1         1 XN2       0.034700
     64 H82         -0.9640     3.6970    -2.0390 h1         1 XN2       0.034700
     65 H91          0.0480     3.9790    -4.2760 h1         1 XN2       0.045700
     66 H92          0.9260     2.8250    -3.2660 h1         1 XN2       0.045700
     67 H101        -3.0340     0.8230    -1.3130 h1         1 XN2       0.031700
     68 H102        -2.9380     2.5570    -1.2050 h1         1 XN2       0.031700
     69 H11         -1.1160     0.5700     0.2070 h1         1 XN2       0.105700
     70 HO2         -1.2140     3.3580     0.5280 ho         1 XN2       0.423000
     71 H121        -3.4960     0.6750     1.0450 hc         1 XN2       0.051700
     72 H122        -3.3080     2.3970     1.2900 hc         1 XN2       0.051700
     73 H13         -1.3900     1.8810     2.8830 hc         1 XN2       0.066700
     74 H141        -4.1200     0.7210     3.5320 hc         1 XN2       0.066700
     75 H16         -4.0480    -0.8900     5.1790 ha         1 XN2       0.115000
     76 H17         -3.0900    -1.8460     7.2340 ha         1 XN2       0.111000
     77 H18         -1.1700    -0.7410     8.3430 ha         1 XN2       0.110000
     78 H19         -0.2400     1.3440     7.3810 ha         1 XN2       0.111000
     79 H20         -1.1980     2.3020     5.3440 ha         1 XN2       0.115000
     80 HN4          0.1320     0.4710     3.3730 hn         1 XN2       0.335500
     81 H22         -0.5290    -2.3500     3.6480 h1         1 XN2       0.084700
     82 H23          0.6450    -1.6160     5.5740 h1         1 XN2       0.046700
     83 HO4          2.3320    -0.1580     5.3870 ho         1 XN2       0.442000
     84 H241         3.1040    -2.6150     4.9100 hc         1 XN2       0.055200
     85 H242         1.6860    -3.6510     4.8240 hc         1 XN2       0.055200
     86 H26          4.0250    -3.9550     2.5500 ha         1 XN2       0.107000
     87 H27          3.7540    -3.8730     0.0920 ha         1 XN2       0.107000
     88 H28          1.8190    -2.7110    -0.9160 ha         1 XN2       0.122000
     89 H29          0.1350    -1.6210     0.5170 ha         1 XN2       0.139000
     90 H311         0.3190     1.3820    -6.7340 h1         1 XN2       0.057200
     91 H312         0.6200     3.0740    -6.3770 h1         1 XN2       0.057200
     92 H33          1.9380    -0.3270    -6.1750 ha         1 XN2       0.117000
     93 H36          2.6460     3.7680    -5.0750 ha         1 XN2       0.130000
     94 H381         6.3550     2.1740    -2.9460 h2         1 XN2       0.064700
     95 H382         7.2790     2.6570    -4.4070 h2         1 XN2       0.064700
     96 H37          4.2720    -0.9290    -5.5960 ha         1 XN2       0.134000
     97 H391        -2.8760     3.4290     4.2290 hc         1 XN2       0.036033
     98 H392        -4.1570     3.1560     3.0530 hc         1 XN2       0.036033
     99 H393        -4.4560     2.8530     4.7570 hc         1 XN2       0.036033
@<TRIPOS>BOND
     1     1     2 1   
     2     1    13 1   
     3     1    39 1   
     4     2     3 1   
     5     2    50 1   
     6     2    51 1   
     7     3     4 1   
     8     3    11 1   
     9     3    52 1   
    10     4     5 2   
    11     4     6 1   
    12     6     7 1   
    13     6    53 1   
    14     7     8 1   
    15     7     9 1   
    16     7    10 1   
    17     8    54 1   
    18     8    55 1   
    19     8    56 1   
    20     9    57 1   
    21     9    58 1   
    22     9    59 1   
    23    10    60 1   
    24    10    61 1   
    25    10    62 1   
    26    11    12 1   
    27    11    14 1   
    28    12    13 1   
    29    12    63 1   
    30    12    64 1   
    31    13    65 1   
    32    13    66 1   
    33    14    15 1   
    34    14    67 1   
    35    14    68 1   
    36    15    16 1   
    37    15    17 1   
    38    15    69 1   
    39    16    70 1   
    40    17    18 1   
    41    17    71 1   
    42    17    72 1   
    43    18    19 1   
    44    18    26 1   
    45    18    73 1   
    46    19    20 1   
    47    19    49 1   
    48    19    74 1   
    49    20    21 ar  
    50    20    25 ar  
    51    21    22 ar  
    52    21    75 1   
    53    22    23 ar  
    54    22    76 1   
    55    23    24 ar  
    56    23    77 1   
    57    24    25 ar  
    58    24    78 1   
    59    25    79 1   
    60    26    27 2   
    61    26    28 1   
    62    28    29 1   
    63    28    80 1   
    64    29    30 1   
    65    29    38 1   
    66    29    81 1   
    67    30    31 1   
    68    30    32 1   
    69    30    82 1   
    70    31    83 1   
    71    32    33 1   
    72    32    84 1   
    73    32    85 1   
    74    33    34 ar  
    75    33    38 ar  
    76    34    35 ar  
    77    34    86 1   
    78    35    36 ar  
    79    35    87 1   
    80    36    37 ar  
    81    36    88 1   
    82    37    38 ar  
    83    37    89 1   
    84    39    40 1   
    85    39    90 1   
    86    39    91 1   
    87    40    41 ar  
    88    40    44 ar  
    89    41    48 ar  
    90    41    92 1   
    91    42    43 ar  
    92    42    45 1   
    93    42    48 ar  
    94    43    44 ar  
    95    43    47 1   
    96    44    93 1   
    97    45    46 1   
    98    46    47 1   
    99    46    94 1   
   100    46    95 1   
   101    48    96 1   
   102    49    97 1   
   103    49    98 1   
   104    49    99 1   
@<TRIPOS>SUBSTRUCTURE
     1 XN2         1 TEMP              0 ****  ****    0 ROOT
