@<TRIPOS>MOLECULE
XN2
   99   104     1     0     0
SMALL
No Charge or Current Charge


@<TRIPOS>ATOM
      1 N1          -0.6260     1.9780    -4.7770 n3         1 XN2      -0.732600
      2 C1          -1.0150     0.7750    -3.9790 c6         1 XN2       0.171800
      3 C2          -2.1530     1.0580    -2.9410 c6         1 XN2       0.115500
      4 C3          -2.6600    -0.2770    -2.2680 c          1 XN2       0.595100
      5 O1          -3.7350    -0.3230    -1.6830 o          1 XN2      -0.588100
      6 N2          -1.8410    -1.3980    -2.3800 ns         1 XN2      -0.508900
      7 C4          -2.1400    -2.7720    -1.9520 c3         1 XN2       0.135400
      8 C5          -0.8970    -3.6290    -2.2890 c3         1 XN2      -0.102767
      9 C6          -2.4020    -2.8450    -0.4270 c3         1 XN2      -0.102767
     10 C7          -3.3590    -3.3200    -2.7350 c3         1 XN2      -0.102767
     11 N3          -1.7180     2.1910    -2.0200 n3         1 XN2      -0.720600
     12 C8          -1.3920     3.4070    -2.8230 c6         1 XN2       0.186800
     13 C9          -0.2760     3.1150    -3.8720 c6         1 XN2       0.164800
     14 C10         -2.6080     2.4610    -0.8540 c3         1 XN2       0.152800
     15 C11         -2.0800     1.7290     0.4060 c3         1 XN2       0.159300
     16 O2          -0.6980     2.0820     0.5310 oh         1 XN2      -0.639000
     17 C12         -2.8360     2.0520     1.7200 c3         1 XN2      -0.104400
     18 C13         -2.1920     1.4170     2.9960 c3         1 XN2      -0.130700
     19 C14         -3.0880     1.5070     4.2690 c3         1 XN2      -0.007400
     20 C15         -2.4410     0.7730     5.4480 ca         1 XN2      -0.085300
     21 C16         -3.0630    -0.3680     5.9960 ca         1 XN2      -0.098500
     22 C17         -2.4660    -1.0620     7.0630 ca         1 XN2      -0.113500
     23 C18         -1.2410    -0.6230     7.5910 ca         1 XN2      -0.115000
     24 C19         -0.6140     0.5130     7.0520 ca         1 XN2      -0.113500
     25 C20         -1.2110     1.2080     5.9870 ca         1 XN2      -0.098500
     26 C21         -1.7550    -0.0430     2.7330 c          1 XN2       0.606100
     27 O3          -2.5580    -0.9320     2.4830 o          1 XN2      -0.624100
     28 N4          -0.3920    -0.2490     2.7770 ns         1 XN2      -0.474900
     29 C22          0.1570    -1.5730     2.4670 c5         1 XN2       0.161000
     30 C23          1.1750    -1.9190     3.6510 c5         1 XN2       0.150300
     31 O4           1.8080    -0.7600     4.2290 oh         1 XN2      -0.656000
     32 C24          2.2570    -2.8470     2.9690 c5         1 XN2      -0.061100
     33 C25          2.2440    -2.3160     1.5570 ca         1 XN2      -0.085300
     34 C26          3.2450    -2.4770     0.5840 ca         1 XN2      -0.102000
     35 C27          3.0620    -1.8930    -0.6850 ca         1 XN2      -0.115000
     36 C28          1.8880    -1.1640    -0.9670 ca         1 XN2      -0.106000
     37 C29          0.8920    -1.0220     0.0190 ca         1 XN2      -0.064000
     38 C30          1.0920    -1.6090     1.2810 ca         1 XN2      -0.103300
     39 C31          0.4090     1.6930    -5.8060 c3         1 XN2       0.226100
     40 C32          1.6870     1.0580    -5.2510 ca         1 XN2      -0.124300
     41 C33          1.8210    -0.3560    -5.2150 ca         1 XN2      -0.099000
     42 C34          3.9950    -0.1170    -4.2030 ca         1 XN2       0.057100
     43 C35          3.8780     1.2440    -4.2460 ca         1 XN2       0.051100
     44 C36          2.7390     1.8700    -4.7660 ca         1 XN2      -0.087000
     45 O5           5.1680    -0.5210    -3.6540 os         1 XN2      -0.343100
     46 C38          5.8530     0.7520    -3.3770 c5         1 XN2       0.371600
     47 O6           4.9640     1.8730    -3.7280 os         1 XN2      -0.345100
     48 C37          2.9820    -0.9550    -4.6820 ca         1 XN2      -0.095000
     49 C39         -3.4390     2.9620     4.6630 c3         1 XN2      -0.086100
     50 H11A        -1.3460    -0.0230    -4.6600 h1         1 XN2       0.053700
     51 H12         -0.1410     0.3970    -3.4280 h1         1 XN2       0.053700
     52 H2          -3.0230     1.4040    -3.5180 h1         1 XN2       0.027700
     53 HN2         -0.9570    -1.2560    -2.8490 hn         1 XN2       0.304500
     54 H51         -1.0570    -4.6780    -2.0130 hc         1 XN2       0.045033
     55 H52         -0.6750    -3.5940    -3.3630 hc         1 XN2       0.045033
     56 H53         -0.0130    -3.2710    -1.7480 hc         1 XN2       0.045033
     57 H61         -1.5700    -2.4080     0.1320 hc         1 XN2       0.045033
     58 H62         -3.3180    -2.3160    -0.1430 hc         1 XN2       0.045033
     59 H63         -2.5130    -3.8870    -0.1030 hc         1 XN2       0.045033
     60 H71         -3.1920    -3.2450    -3.8160 hc         1 XN2       0.045033
     61 H72         -3.5340    -4.3750    -2.4910 hc         1 XN2       0.045033
     62 H73         -4.2740    -2.7680    -2.4930 hc         1 XN2       0.045033
     63 H81         -2.2900     3.7720    -3.3420 h1         1 XN2       0.034700
     64 H82         -1.0450     4.2180    -2.1660 h1         1 XN2       0.034700
     65 H91         -0.0950     4.0280    -4.4570 h1         1 XN2       0.045700
     66 H92          0.6500     2.8940    -3.3230 h1         1 XN2       0.045700
     67 H101        -3.6450     2.1700    -1.0630 h1         1 XN2       0.031700
     68 H102        -2.6230     3.5360    -0.6300 h1         1 XN2       0.031700
     69 H11         -2.1720     0.6520     0.2170 h1         1 XN2       0.105700
     70 HO2         -0.4310     2.2500    -0.4020 ho         1 XN2       0.423000
     71 H121        -3.8670     1.6940     1.6170 hc         1 XN2       0.051700
     72 H122        -2.8880     3.1410     1.8410 hc         1 XN2       0.051700
     73 H13         -1.2810     1.9930     3.2030 hc         1 XN2       0.066700
     74 H141        -4.0380     1.0120     4.0290 hc         1 XN2       0.066700
     75 H16         -4.0080    -0.7230     5.5930 ha         1 XN2       0.115000
     76 H17         -2.9530    -1.9410     7.4780 ha         1 XN2       0.111000
     77 H18         -0.7780    -1.1620     8.4150 ha         1 XN2       0.110000
     78 H19          0.3360     0.8530     7.4580 ha         1 XN2       0.111000
     79 H20         -0.7110     2.0830     5.5780 ha         1 XN2       0.115000
     80 HN4          0.1950     0.5370     3.0230 hn         1 XN2       0.335500
     81 H22         -0.6010    -2.3630     2.3730 h1         1 XN2       0.084700
     82 H23          0.6490    -2.4660     4.4460 h1         1 XN2       0.046700
     83 HO4          2.3980    -1.0850     4.9430 ho         1 XN2       0.442000
     84 H241         3.2410    -2.7760     3.4470 hc         1 XN2       0.055200
     85 H242         1.9530    -3.8990     2.9980 hc         1 XN2       0.055200
     86 H26          4.1500    -3.0370     0.8090 ha         1 XN2       0.107000
     87 H27          3.8290    -2.0030    -1.4490 ha         1 XN2       0.107000
     88 H28          1.7520    -0.7110    -1.9460 ha         1 XN2       0.122000
     89 H29         -0.0150    -0.4650    -0.1940 ha         1 XN2       0.139000
     90 H311        -0.0090     1.0170    -6.5640 h1         1 XN2       0.057200
     91 H312         0.6740     2.6180    -6.3380 h1         1 XN2       0.057200
     92 H33          1.0200    -0.9880    -5.5910 ha         1 XN2       0.117000
     93 H36          2.6690     2.9550    -4.7850 ha         1 XN2       0.130000
     94 H381         6.1090     0.8070    -2.3110 h2         1 XN2       0.064700
     95 H382         6.7640     0.8110    -3.9860 h2         1 XN2       0.064700
     96 H37          3.0890    -2.0370    -4.6420 ha         1 XN2       0.134000
     97 H391        -2.5340     3.5640     4.8090 hc         1 XN2       0.036033
     98 H392        -4.0520     3.4440     3.8930 hc         1 XN2       0.036033
     99 H393        -4.0120     2.9750     5.5980 hc         1 XN2       0.036033
@<TRIPOS>BOND
     1     1     2 1   
     2     1    13 1   
     3     1    39 1   
     4     2     3 1   
     5     2    50 1   
     6     2    51 1   
     7     3     4 1   
     8     3    11 1   
     9     3    52 1   
    10     4     5 2   
    11     4     6 1   
    12     6     7 1   
    13     6    53 1   
    14     7     8 1   
    15     7     9 1   
    16     7    10 1   
    17     8    54 1   
    18     8    55 1   
    19     8    56 1   
    20     9    57 1   
    21     9    58 1   
    22     9    59 1   
    23    10    60 1   
    24    10    61 1   
    25    10    62 1   
    26    11    12 1   
    27    11    14 1   
    28    12    13 1   
    29    12    63 1   
    30    12    64 1   
    31    13    65 1   
    32    13    66 1   
    33    14    15 1   
    34    14    67 1   
    35    14    68 1   
    36    15    16 1   
    37    15    17 1   
    38    15    69 1   
    39    16    70 1   
    40    17    18 1   
    41    17    71 1   
    42    17    72 1   
    43    18    19 1   
    44    18    26 1   
    45    18    73 1   
    46    19    20 1   
    47    19    49 1   
    48    19    74 1   
    49    20    21 ar  
    50    20    25 ar  
    51    21    22 ar  
    52    21    75 1   
    53    22    23 ar  
    54    22    76 1   
    55    23    24 ar  
    56    23    77 1   
    57    24    25 ar  
    58    24    78 1   
    59    25    79 1   
    60    26    27 2   
    61    26    28 1   
    62    28    29 1   
    63    28    80 1   
    64    29    30 1   
    65    29    38 1   
    66    29    81 1   
    67    30    31 1   
    68    30    32 1   
    69    30    82 1   
    70    31    83 1   
    71    32    33 1   
    72    32    84 1   
    73    32    85 1   
    74    33    34 ar  
    75    33    38 ar  
    76    34    35 ar  
    77    34    86 1   
    78    35    36 ar  
    79    35    87 1   
    80    36    37 ar  
    81    36    88 1   
    82    37    38 ar  
    83    37    89 1   
    84    39    40 1   
    85    39    90 1   
    86    39    91 1   
    87    40    41 ar  
    88    40    44 ar  
    89    41    48 ar  
    90    41    92 1   
    91    42    43 ar  
    92    42    45 1   
    93    42    48 ar  
    94    43    44 ar  
    95    43    47 1   
    96    44    93 1   
    97    45    46 1   
    98    46    47 1   
    99    46    94 1   
   100    46    95 1   
   101    48    96 1   
   102    49    97 1   
   103    49    98 1   
   104    49    99 1   
@<TRIPOS>SUBSTRUCTURE
     1 XN2         1 TEMP              0 ****  ****    0 ROOT
