@<TRIPOS>MOLECULE
XN3
   96   101     1     0     0
SMALL
bcc


@<TRIPOS>ATOM
      1 N1           0.5560    -0.7340     4.9650 n3         1 XN3      -0.729600
      2 C1           1.4180    -1.0800     3.8570 c6         1 XN3       0.170800
      3 C2           1.2940    -0.0430     2.7420 c6         1 XN3       0.113500
      4 C3           2.1770    -0.4830     1.5730 c          1 XN3       0.661100
      5 O1           1.9190    -1.4930     0.9330 o          1 XN3      -0.588100
      6 N2           3.2290     0.3150     1.3410 ns         1 XN3      -0.579900
      7 C4           4.2250     0.1660     0.2730 c3         1 XN3       0.139400
      8 C5           5.1990     1.3310     0.4330 c3         1 XN3      -0.104767
      9 C6           3.5530     0.2600    -1.0990 c3         1 XN3      -0.104767
     10 C7           4.9880    -1.1500     0.4210 c3         1 XN3      -0.104767
     11 N3          -0.0850     0.0520     2.3060 n3         1 XN3      -0.719600
     12 C8          -0.9710     0.3400     3.4170 c6         1 XN3       0.181800
     13 C9          -0.8210    -0.6860     4.5180 c6         1 XN3       0.160800
     14 C10         -0.2930     0.9400     1.1710 c3         1 XN3       0.148800
     15 C11         -1.0220     0.2490     0.0220 c3         1 XN3       0.137100
     16 O2          -2.3150    -0.1740     0.4050 oh         1 XN3      -0.580800
     17 C12         -1.0200     1.1360    -1.2200 c3         1 XN3      -0.101400
     18 C13         -1.5500     0.4520    -2.4870 c3         1 XN3      -0.128700
     19 C14         -3.0830     0.4830    -2.6210 c3         1 XN3      -0.025100
     20 C15         -3.5270    -0.1230    -3.9240 ca         1 XN3      -0.090300
     21 C16         -3.4990    -1.5060    -4.1010 ca         1 XN3      -0.124000
     22 C17         -3.8210    -2.0760    -5.3260 ca         1 XN3      -0.136000
     23 C18         -4.1760    -1.2650    -6.4000 ca         1 XN3      -0.135000
     24 C19         -4.2150     0.1130    -6.2320 ca         1 XN3      -0.136000
     25 C20         -3.8930     0.6770    -5.0040 ca         1 XN3      -0.124000
     26 C21         -0.9540     1.1240    -3.7100 c          1 XN3       0.668100
     27 O3          -1.0970     2.3200    -3.9190 o          1 XN3      -0.612100
     28 N4          -0.2760     0.3020    -4.5310 ns         1 XN3      -0.561900
     29 C22          0.3550     0.7020    -5.7570 c5         1 XN3       0.119000
     30 C23         -0.3220     0.1330    -7.0320 c5         1 XN3       0.135100
     31 O4          -0.7630    -1.1880    -6.8280 oh         1 XN3      -0.596800
     32 C24          0.8210     0.1020    -8.0530 c5         1 XN3      -0.032100
     33 C25          2.0420    -0.1240    -7.2040 ca         1 XN3      -0.070300
     34 C26          3.2970    -0.5890    -7.5620 ca         1 XN3      -0.113000
     35 C27          4.2740    -0.7160    -6.5780 ca         1 XN3      -0.124000
     36 C28          3.9980    -0.3810    -5.2560 ca         1 XN3      -0.134000
     37 C29          2.7390     0.0910    -4.9010 ca         1 XN3      -0.105000
     38 C30          1.7730     0.2150    -5.8840 ca         1 XN3      -0.107300
     39 C31          0.7440    -1.6150     6.0980 c3         1 XN3       0.220100
     40 C32          0.0780    -1.0840     7.3410 ca         1 XN3      -0.087300
     41 C33         -0.7330    -1.8990     8.1150 ca         1 XN3      -0.127000
     42 C34         -1.1180    -0.1330     9.6340 ca         1 XN3       0.053100
     43 C35         -0.3120     0.6920     8.8620 ca         1 XN3       0.045100
     44 C36          0.2970     0.2520     7.7160 ca         1 XN3      -0.093000
     45 O5          -1.5690     0.5600    10.7100 os         1 XN3      -0.320900
     46 C38         -1.2220     1.9170    10.4710 c5         1 XN3       0.326200
     47 O6          -0.2430     1.9170     9.4410 os         1 XN3      -0.321900
     48 C37         -1.3500    -1.4390     9.2880 ca         1 XN3      -0.116000
     49 H11A         1.1790    -2.0750     3.4450 h1         1 XN3       0.051200
     50 H12          2.4540    -1.1070     4.2050 h1         1 XN3       0.051200
     51 H2           1.6560     0.9210     3.1430 h1         1 XN3       0.030700
     52 HN2          3.3160     1.1280     1.9300 hn         1 XN3       0.309500
     53 H51          5.9620     1.2890    -0.3440 hc         1 XN3       0.044922
     54 H52          4.6870     2.2920     0.3460 hc         1 XN3       0.044922
     55 H53          5.7050     1.2990     1.4000 hc         1 XN3       0.044922
     56 H61          3.0390     1.2170    -1.2090 hc         1 XN3       0.044922
     57 H62          4.3060     0.1930    -1.8870 hc         1 XN3       0.044922
     58 H63          2.8300    -0.5390    -1.2530 hc         1 XN3       0.044922
     59 H71          5.4640    -1.2100     1.4010 hc         1 XN3       0.044922
     60 H72          4.3360    -2.0140     0.3020 hc         1 XN3       0.044922
     61 H73          5.7720    -1.2130    -0.3360 hc         1 XN3       0.044922
     62 H81         -2.0010     0.3300     3.0570 h1         1 XN3       0.039200
     63 H82         -0.7820     1.3430     3.8370 h1         1 XN3       0.039200
     64 H91         -1.1600    -1.6720     4.1560 h1         1 XN3       0.048200
     65 H92         -1.4670    -0.4060     5.3520 h1         1 XN3       0.048200
     66 H101        -0.8500     1.8390     1.4720 h1         1 XN3       0.033700
     67 H102         0.6630     1.3170     0.7950 h1         1 XN3       0.033700
     68 H11         -0.4750    -0.6700    -0.2100 h1         1 XN3       0.099700
     69 HO2         -2.8410     0.6080     0.6080 ho         1 XN3       0.390000
     70 H121        -1.5700     2.0630    -1.0270 hc         1 XN3       0.054200
     71 H122         0.0190     1.4350    -1.3900 hc         1 XN3       0.054200
     72 H13         -1.2330    -0.5970    -2.4650 hc         1 XN3       0.062700
     73 H141        -3.5180    -0.0600    -1.7820 hc         1 XN3       0.065200
     74 H142        -3.4270     1.5170    -2.5490 hc         1 XN3       0.065200
     75 H16         -3.2180    -2.1450    -3.2720 ha         1 XN3       0.138500
     76 H17         -3.7920    -3.1510    -5.4450 ha         1 XN3       0.134000
     77 H18         -4.4230    -1.7050    -7.3570 ha         1 XN3       0.134000
     78 H19         -4.4940     0.7510    -7.0610 ha         1 XN3       0.134000
     79 H20         -3.9160     1.7540    -4.8870 ha         1 XN3       0.138500
     80 HN4         -0.2000    -0.6690    -4.2720 hn         1 XN3       0.322500
     81 H22          0.3310     1.7940    -5.8060 h1         1 XN3       0.095700
     82 H23         -1.1470     0.7750    -7.3590 h1         1 XN3       0.047700
     83 HO4         -1.5820    -1.1650    -6.3220 ho         1 XN3       0.413000
     84 H241         0.6690    -0.6570    -8.8220 hc         1 XN3       0.065200
     85 H242         0.8850     1.0680    -8.5630 hc         1 XN3       0.065200
     86 H26          3.5190    -0.8590    -8.5870 ha         1 XN3       0.133000
     87 H27          5.2560    -1.0860    -6.8430 ha         1 XN3       0.129000
     88 H28          4.7660    -0.4920    -4.5010 ha         1 XN3       0.128000
     89 H29          2.5160     0.3470    -3.8710 ha         1 XN3       0.133000
     90 H311         0.3810    -2.6370     5.8990 h1         1 XN3       0.042200
     91 H312         1.8200    -1.7020     6.2770 h1         1 XN3       0.042200
     92 H33         -0.9060    -2.9220     7.8050 ha         1 XN3       0.136000
     93 H36          0.9140     0.9030     7.1100 ha         1 XN3       0.162000
     94 H381        -2.1060     2.4750    10.1430 h2         1 XN3       0.063700
     95 H382        -0.8060     2.3580    11.3760 h2         1 XN3       0.063700
     96 H37         -1.9830    -2.0840     9.8810 ha         1 XN3       0.152000
@<TRIPOS>BOND
     1     1     2 1   
     2     1    13 1   
     3     1    39 1   
     4     2     3 1   
     5     2    49 1   
     6     2    50 1   
     7     3     4 1   
     8     3    11 1   
     9     3    51 1   
    10     4     5 2   
    11     4     6 1   
    12     6     7 1   
    13     6    52 1   
    14     7     8 1   
    15     7     9 1   
    16     7    10 1   
    17     8    53 1   
    18     8    54 1   
    19     8    55 1   
    20     9    56 1   
    21     9    57 1   
    22     9    58 1   
    23    10    59 1   
    24    10    60 1   
    25    10    61 1   
    26    11    12 1   
    27    11    14 1   
    28    12    13 1   
    29    12    62 1   
    30    12    63 1   
    31    13    64 1   
    32    13    65 1   
    33    14    15 1   
    34    14    66 1   
    35    14    67 1   
    36    15    16 1   
    37    15    17 1   
    38    15    68 1   
    39    16    69 1   
    40    17    18 1   
    41    17    70 1   
    42    17    71 1   
    43    18    19 1   
    44    18    26 1   
    45    18    72 1   
    46    19    20 1   
    47    19    73 1   
    48    19    74 1   
    49    20    21 ar  
    50    20    25 ar  
    51    21    22 ar  
    52    21    75 1   
    53    22    23 ar  
    54    22    76 1   
    55    23    24 ar  
    56    23    77 1   
    57    24    25 ar  
    58    24    78 1   
    59    25    79 1   
    60    26    27 2   
    61    26    28 1   
    62    28    29 1   
    63    28    80 1   
    64    29    30 1   
    65    29    38 1   
    66    29    81 1   
    67    30    31 1   
    68    30    32 1   
    69    30    82 1   
    70    31    83 1   
    71    32    33 1   
    72    32    84 1   
    73    32    85 1   
    74    33    34 ar  
    75    33    38 ar  
    76    34    35 ar  
    77    34    86 1   
    78    35    36 ar  
    79    35    87 1   
    80    36    37 ar  
    81    36    88 1   
    82    37    38 ar  
    83    37    89 1   
    84    39    40 1   
    85    39    90 1   
    86    39    91 1   
    87    40    41 ar  
    88    40    44 ar  
    89    41    48 ar  
    90    41    92 1   
    91    42    43 ar  
    92    42    45 1   
    93    42    48 ar  
    94    43    44 ar  
    95    43    47 1   
    96    44    93 1   
    97    45    46 1   
    98    46    47 1   
    99    46    94 1   
   100    46    95 1   
   101    48    96 1   
@<TRIPOS>SUBSTRUCTURE
     1 XN3         1 TEMP              0 ****  ****    0 ROOT
