@<TRIPOS>MOLECULE
XN3
   96   101     1     0     0
SMALL
No Charge or Current Charge


@<TRIPOS>ATOM
      1 N1           0.8070     0.0930     4.8200 n3         1 XN3      -0.729600
      2 C1           1.4560    -0.1750     3.5030 c6         1 XN3       0.170800
      3 C2           0.8450     0.6850     2.3410 c6         1 XN3       0.113500
      4 C3           1.7020     0.5410     1.0300 c          1 XN3       0.594100
      5 O1           1.7280     1.4350     0.1930 o          1 XN3      -0.588100
      6 N2           2.4040    -0.6490     0.8650 ns         1 XN3      -0.512900
      7 C4           3.2000    -1.0630    -0.2970 c3         1 XN3       0.139400
      8 C5           3.8120    -2.4420     0.0420 c3         1 XN3      -0.104767
      9 C6           4.3500    -0.0610    -0.5680 c3         1 XN3      -0.104767
     10 C7           2.2880    -1.2090    -1.5400 c3         1 XN3      -0.104767
     11 N3          -0.6520     0.4000     2.2280 n3         1 XN3      -0.719600
     12 C8          -1.3070     0.6710     3.5470 c6         1 XN3       0.181800
     13 C9          -0.6650    -0.1380     4.7130 c6         1 XN3       0.160800
     14 C10         -1.3650     1.0990     1.1100 c3         1 XN3       0.148800
     15 C11         -1.2450     0.3860    -0.2690 c3         1 XN3       0.160300
     16 O2          -1.0030    -0.9960     0.0050 oh         1 XN3      -0.643000
     17 C12         -2.5170     0.5210    -1.1430 c3         1 XN3      -0.101400
     18 C13         -2.3390     0.0070    -2.6010 c3         1 XN3      -0.128700
     19 C14         -3.6920    -0.1490    -3.3400 c3         1 XN3      -0.025100
     20 C15         -3.5130    -0.7580    -4.7270 ca         1 XN3      -0.090300
     21 C16         -3.3130    -2.1450    -4.8710 ca         1 XN3      -0.106000
     22 C17         -3.1310    -2.7070    -6.1460 ca         1 XN3      -0.118000
     23 C18         -3.1450    -1.8850    -7.2850 ca         1 XN3      -0.117000
     24 C19         -3.3420    -0.5010    -7.1480 ca         1 XN3      -0.118000
     25 C20         -3.5250     0.0610    -5.8730 ca         1 XN3      -0.106000
     26 C21         -1.4000     0.9170    -3.4210 c          1 XN3       0.601100
     27 O3          -1.6520     2.0970    -3.6290 o          1 XN3      -0.612100
     28 N4          -0.2740     0.2920    -3.9130 ns         1 XN3      -0.494900
     29 C22          0.4460     0.9230    -5.0330 c5         1 XN3       0.119000
     30 C23          0.2030    -0.0320    -6.3000 c5         1 XN3       0.158300
     31 O4          -0.1460    -1.3870    -5.9630 oh         1 XN3      -0.659000
     32 C24          1.5600    -0.0070    -7.1090 c5         1 XN3      -0.032100
     33 C25          2.5530     0.3900    -6.0490 ca         1 XN3      -0.070300
     34 C26          3.9520     0.3120    -6.1470 ca         1 XN3      -0.095000
     35 C27          4.7380     0.7780    -5.0760 ca         1 XN3      -0.106000
     36 C28          4.1210     1.3240    -3.9320 ca         1 XN3      -0.116000
     37 C29          2.7170     1.3930    -3.8510 ca         1 XN3      -0.087000
     38 C30          1.9480     0.9040    -4.9200 ca         1 XN3      -0.107300
     39 C31          1.4370    -0.6590     5.9300 c3         1 XN3       0.220100
     40 C32          0.8920    -0.2720     7.3010 ca         1 XN3      -0.087300
     41 C33          0.1980    -1.2220     8.0940 ca         1 XN3      -0.109000
     42 C34         -0.1070     0.4480     9.8060 ca         1 XN3       0.053100
     43 C35          0.5600     1.3670     9.0460 ca         1 XN3       0.045100
     44 C36          1.0770     1.0440     7.7860 ca         1 XN3      -0.075000
     45 O5          -0.5190     0.9570    10.9950 os         1 XN3      -0.344100
     46 C38         -0.0940     2.3650    10.9090 c5         1 XN3       0.372600
     47 O6           0.6530     2.5750     9.6580 os         1 XN3      -0.345100
     48 C37         -0.3080    -0.8650     9.3630 ca         1 XN3      -0.098000
     49 H11A         1.3570    -1.2420     3.2530 h1         1 XN3       0.051200
     50 H12          2.5320     0.0450     3.5710 h1         1 XN3       0.051200
     51 H2           0.9740     1.7390     2.6280 h1         1 XN3       0.030700
     52 HN2          2.2880    -1.3340     1.6000 hn         1 XN3       0.309500
     53 H51          4.4150    -2.8190    -0.7940 hc         1 XN3       0.044922
     54 H52          4.4600    -2.3780     0.9240 hc         1 XN3       0.044922
     55 H53          3.0270    -3.1810     0.2490 hc         1 XN3       0.044922
     56 H61          4.9620     0.0820     0.3300 hc         1 XN3       0.044922
     57 H62          5.0030    -0.4290    -1.3680 hc         1 XN3       0.044922
     58 H63          3.9710     0.9180    -0.8790 hc         1 XN3       0.044922
     59 H71          1.5040    -1.9540    -1.3640 hc         1 XN3       0.044922
     60 H72          1.7980    -0.2640    -1.7910 hc         1 XN3       0.044922
     61 H73          2.8680    -1.5280    -2.4150 hc         1 XN3       0.044922
     62 H81         -2.3760     0.4150     3.5010 h1         1 XN3       0.039200
     63 H82         -1.2430     1.7420     3.7860 h1         1 XN3       0.039200
     64 H91         -0.8700    -1.2070     4.5490 h1         1 XN3       0.048200
     65 H92         -1.1710     0.1460     5.6480 h1         1 XN3       0.048200
     66 H101        -2.4360     1.1490     1.3490 h1         1 XN3       0.033700
     67 H102        -1.0210     2.1380     1.0180 h1         1 XN3       0.033700
     68 H11         -0.4010     0.8230    -0.8160 h1         1 XN3       0.099700
     69 HO2         -0.8130    -0.9770     0.9760 ho         1 XN3       0.429000
     70 H121        -3.3340    -0.0280    -0.6580 hc         1 XN3       0.054200
     71 H122        -2.8260     1.5740    -1.1690 hc         1 XN3       0.054200
     72 H13         -1.8900    -0.9930    -2.5490 hc         1 XN3       0.062700
     73 H141        -4.3590    -0.7850    -2.7450 hc         1 XN3       0.065200
     74 H142        -4.1880     0.8280    -3.4080 hc         1 XN3       0.065200
     75 H16         -3.2990    -2.7880    -3.9930 ha         1 XN3       0.120500
     76 H17         -2.9790    -3.7790    -6.2510 ha         1 XN3       0.116000
     77 H18         -3.0050    -2.3210    -8.2730 ha         1 XN3       0.116000
     78 H19         -3.3530     0.1360    -8.0300 ha         1 XN3       0.116000
     79 H20         -3.6730     1.1340    -5.7770 ha         1 XN3       0.120500
     80 HN4         -0.1620    -0.6890    -3.6940 hn         1 XN3       0.322500
     81 H22          0.1150     1.9470    -5.2590 h1         1 XN3       0.095700
     82 H23         -0.5990     0.3870    -6.9230 h1         1 XN3       0.047700
     83 HO4         -1.1290    -1.4280    -5.9570 ho         1 XN3       0.452000
     84 H241         1.7910    -0.9740    -7.5700 hc         1 XN3       0.065200
     85 H242         1.5250     0.7360    -7.9130 hc         1 XN3       0.065200
     86 H26          4.4220    -0.0920    -7.0410 ha         1 XN3       0.115000
     87 H27          5.8230     0.7280    -5.1370 ha         1 XN3       0.111000
     88 H28          4.7320     1.6990    -3.1140 ha         1 XN3       0.110000
     89 H29          2.2360     1.8230    -2.9750 ha         1 XN3       0.115000
     90 H311         1.3010    -1.7390     5.7770 h1         1 XN3       0.042200
     91 H312         2.5200    -0.4730     5.9350 h1         1 XN3       0.042200
     92 H33          0.0520    -2.2350     7.7270 ha         1 XN3       0.118000
     93 H36          1.6010     1.7900     7.1940 ha         1 XN3       0.144000
     94 H381        -0.9820     3.0080    10.9100 h2         1 XN3       0.063700
     95 H382         0.5460     2.6080    11.7660 h2         1 XN3       0.063700
     96 H37         -0.8390    -1.5850     9.9800 ha         1 XN3       0.134000
@<TRIPOS>BOND
     1     1     2 1   
     2     1    13 1   
     3     1    39 1   
     4     2     3 1   
     5     2    49 1   
     6     2    50 1   
     7     3     4 1   
     8     3    11 1   
     9     3    51 1   
    10     4     5 2   
    11     4     6 1   
    12     6     7 1   
    13     6    52 1   
    14     7     8 1   
    15     7     9 1   
    16     7    10 1   
    17     8    53 1   
    18     8    54 1   
    19     8    55 1   
    20     9    56 1   
    21     9    57 1   
    22     9    58 1   
    23    10    59 1   
    24    10    60 1   
    25    10    61 1   
    26    11    12 1   
    27    11    14 1   
    28    12    13 1   
    29    12    62 1   
    30    12    63 1   
    31    13    64 1   
    32    13    65 1   
    33    14    15 1   
    34    14    66 1   
    35    14    67 1   
    36    15    16 1   
    37    15    17 1   
    38    15    68 1   
    39    16    69 1   
    40    17    18 1   
    41    17    70 1   
    42    17    71 1   
    43    18    19 1   
    44    18    26 1   
    45    18    72 1   
    46    19    20 1   
    47    19    73 1   
    48    19    74 1   
    49    20    21 ar  
    50    20    25 ar  
    51    21    22 ar  
    52    21    75 1   
    53    22    23 ar  
    54    22    76 1   
    55    23    24 ar  
    56    23    77 1   
    57    24    25 ar  
    58    24    78 1   
    59    25    79 1   
    60    26    27 2   
    61    26    28 1   
    62    28    29 1   
    63    28    80 1   
    64    29    30 1   
    65    29    38 1   
    66    29    81 1   
    67    30    31 1   
    68    30    32 1   
    69    30    82 1   
    70    31    83 1   
    71    32    33 1   
    72    32    84 1   
    73    32    85 1   
    74    33    34 ar  
    75    33    38 ar  
    76    34    35 ar  
    77    34    86 1   
    78    35    36 ar  
    79    35    87 1   
    80    36    37 ar  
    81    36    88 1   
    82    37    38 ar  
    83    37    89 1   
    84    39    40 1   
    85    39    90 1   
    86    39    91 1   
    87    40    41 ar  
    88    40    44 ar  
    89    41    48 ar  
    90    41    92 1   
    91    42    43 ar  
    92    42    45 1   
    93    42    48 ar  
    94    43    44 ar  
    95    43    47 1   
    96    44    93 1   
    97    45    46 1   
    98    46    47 1   
    99    46    94 1   
   100    46    95 1   
   101    48    96 1   
@<TRIPOS>SUBSTRUCTURE
     1 XN3         1 TEMP              0 ****  ****    0 ROOT
