@<TRIPOS>MOLECULE
XN5
   33    35     1     0     0
SMALL
No Charge or Current Charge


@<TRIPOS>ATOM
      1 N1         -10.0740   -55.0500   -25.2820 nu         1 XN5      -0.924100
      2 N3         -12.0440   -53.0530   -25.5510 nc         1 XN5      -0.572100
      3 C4         -10.6810   -56.5170   -23.4290 ca         1 XN5      -0.158300
      4 C5         -12.0900   -56.5520   -23.4900 ca         1 XN5      -0.035000
      5 C6         -12.8480   -56.6640   -22.3120 ca         1 XN5      -0.188000
      6 C7          -9.8900   -56.3940   -24.7270 c3         1 XN5       0.301100
      7 C8          -9.6650   -54.5790   -26.5020 ca         1 XN5       0.663900
      8 C10         -8.7280   -53.8080   -28.9450 ca         1 XN5      -0.253000
      9 C13        -11.1380   -52.5170   -26.3580 cd         1 XN5       0.406500
     10 C15        -12.2250   -50.5620   -25.7730 cc         1 XN5      -0.249000
     11 C1         -12.2020   -56.7420   -21.0720 ca         1 XN5       0.214000
     12 C2         -10.8030   -56.7130   -20.9980 ca         1 XN5      -0.250000
     13 C3         -10.0420   -56.6010   -22.1720 ca         1 XN5       0.177100
     14 F          -12.9310   -56.8500   -19.9410 f          1 XN5      -0.181000
     15 O           -8.6820   -56.5780   -22.0740 oh         1 XN5      -0.524100
     16 N2          -8.7730   -55.3710   -27.1090 nb         1 XN5      -0.771000
     17 C9          -8.3100   -54.9860   -28.3140 ca         1 XN5       0.410900
     18 C11         -9.6590   -52.9810   -28.3050 ca         1 XN5      -0.006000
     19 C12        -10.1370   -53.3610   -27.0360 ca         1 XN5      -0.277500
     20 C14        -11.2080   -51.1050   -26.5060 cd         1 XN5      -0.177000
     21 S          -13.0510   -51.8540   -24.9260 ss         1 XN5       0.319100
     22 H1         -10.8620   -54.5110   -24.9230 hn         1 XN5       0.536000
     23 H2         -12.5980   -56.4920   -24.4520 ha         1 XN5       0.124000
     24 H3         -13.9330   -56.6890   -22.3600 ha         1 XN5       0.138000
     25 H4         -10.2600   -57.1480   -25.4360 h1         1 XN5       0.060200
     26 H5          -8.8230   -56.5980   -24.5630 h1         1 XN5       0.060200
     27 H6          -8.3330   -53.5470   -29.9230 ha         1 XN5       0.124000
     28 H7         -12.5450   -49.5340   -25.6610 h4         1 XN5       0.158000
     29 H8         -10.3220   -56.7780   -20.0260 ha         1 XN5       0.134000
     30 H9          -8.4400   -56.6380   -21.1260 ho         1 XN5       0.467000
     31 H10         -7.5870   -55.6460   -28.7920 h4         1 XN5       0.014100
     32 H11        -10.0020   -52.0710   -28.7950 ha         1 XN5       0.110000
     33 H12        -10.5290   -50.5250   -27.1190 ha         1 XN5       0.147000
@<TRIPOS>BOND
     1     1     6 1   
     2     1     7 1   
     3     1    22 1   
     4     2     9 2   
     5     2    21 1   
     6     3     4 ar  
     7     3     6 1   
     8     3    13 ar  
     9     4     5 ar  
    10     4    23 1   
    11     5    11 ar  
    12     5    24 1   
    13     6    25 1   
    14     6    26 1   
    15     7    16 ar  
    16     7    19 ar  
    17     8    17 ar  
    18     8    18 ar  
    19     8    27 1   
    20     9    19 1   
    21     9    20 1   
    22    10    20 2   
    23    10    21 1   
    24    10    28 1   
    25    11    12 ar  
    26    11    14 1   
    27    12    13 ar  
    28    12    29 1   
    29    13    15 1   
    30    15    30 1   
    31    16    17 ar  
    32    17    31 1   
    33    18    19 ar  
    34    18    32 1   
    35    20    33 1   
@<TRIPOS>SUBSTRUCTURE
     1 XN5         1 TEMP              0 ****  ****    0 ROOT
