@<TRIPOS>MOLECULE
XN5
   33    35     1     0     0
SMALL
abcg2


@<TRIPOS>ATOM
      1 N1         -10.5220   -55.2090   -25.4520 nu         1 XN5      -0.924100
      2 N3         -11.6170   -52.7560   -25.1200 nc         1 XN5      -0.572100
      3 C4         -10.9200   -56.7090   -23.5860 ca         1 XN5      -0.158300
      4 C5         -12.0850   -57.4490   -23.4130 ca         1 XN5      -0.035000
      5 C6         -12.6870   -57.6030   -22.1670 ca         1 XN5      -0.188000
      6 C7         -10.2920   -56.5530   -24.9430 c3         1 XN5       0.301100
      7 C8          -9.8890   -54.6970   -26.5280 ca         1 XN5       0.663900
      8 C10         -8.5640   -53.7820   -28.7660 ca         1 XN5      -0.253000
      9 C13        -10.8910   -52.3730   -26.1690 cd         1 XN5       0.406500
     10 C15        -11.8320   -50.3440   -25.5950 cc         1 XN5      -0.249000
     11 C1         -12.0840   -56.9850   -21.0900 ca         1 XN5       0.214000
     12 C2         -10.9280   -56.2360   -21.2000 ca         1 XN5      -0.250000
     13 C3         -10.3470   -56.1000   -22.4590 ca         1 XN5       0.177100
     14 F          -12.6440   -57.1150   -19.8600 f          1 XN5      -0.181000
     15 O           -9.2080   -55.3800   -22.6440 oh         1 XN5      -0.524100
     16 N2          -9.0910   -55.5330   -27.2180 nb         1 XN5      -0.771000
     17 C9          -8.4530   -55.0810   -28.2960 ca         1 XN5       0.410900
     18 C11         -9.3780   -52.9100   -28.0550 ca         1 XN5      -0.006000
     19 C12        -10.0620   -53.3250   -26.9160 ca         1 XN5      -0.277500
     20 C14        -10.9980   -50.9740   -26.4680 cd         1 XN5      -0.177000
     21 S          -12.4350   -51.4760   -24.4670 ss         1 XN5       0.319100
     22 H1         -11.1230   -54.5790   -24.9360 hn         1 XN5       0.536000
     23 H2         -12.5330   -57.9220   -24.2780 ha         1 XN5       0.124000
     24 H3         -13.5910   -58.1810   -22.0360 ha         1 XN5       0.138000
     25 H4         -10.7100   -57.2970   -25.6250 h1         1 XN5       0.060200
     26 H5          -9.2170   -56.7370   -24.8910 h1         1 XN5       0.060200
     27 H6          -8.0320   -53.4620   -29.6510 ha         1 XN5       0.124000
     28 H7         -12.1040   -49.3000   -25.5650 h4         1 XN5       0.158000
     29 H8         -10.4880   -55.7700   -20.3270 ha         1 XN5       0.134000
     30 H9          -8.8980   -55.0220   -21.8010 ho         1 XN5       0.467000
     31 H10         -7.8230   -55.8000   -28.8110 h4         1 XN5       0.014100
     32 H11         -9.4780   -51.8890   -28.3970 ha         1 XN5       0.110000
     33 H12        -10.4870   -50.4680   -27.2710 ha         1 XN5       0.147000
@<TRIPOS>BOND
     1     1     6 1   
     2     1     7 1   
     3     1    22 1   
     4     2     9 2   
     5     2    21 1   
     6     3     4 ar  
     7     3     6 1   
     8     3    13 ar  
     9     4     5 ar  
    10     4    23 1   
    11     5    11 ar  
    12     5    24 1   
    13     6    25 1   
    14     6    26 1   
    15     7    16 ar  
    16     7    19 ar  
    17     8    17 ar  
    18     8    18 ar  
    19     8    27 1   
    20     9    19 1   
    21     9    20 1   
    22    10    20 2   
    23    10    21 1   
    24    10    28 1   
    25    11    12 ar  
    26    11    14 1   
    27    12    13 ar  
    28    12    29 1   
    29    13    15 1   
    30    15    30 1   
    31    16    17 ar  
    32    17    31 1   
    33    18    19 ar  
    34    18    32 1   
    35    20    33 1   
@<TRIPOS>SUBSTRUCTURE
     1 XN5         1 TEMP              0 ****  ****    0 ROOT
