@<TRIPOS>MOLECULE
XN7
   25    24     1     0     0
SMALL
No Charge or Current Charge


@<TRIPOS>ATOM
      1 C02        -53.2280    49.0250   -21.0560 c3         1 XN7       0.160600
      2 C03        -53.6220    47.5300   -20.8400 c3         1 XN7       0.167800
      3 C05        -55.1980    47.7950   -18.8590 c3         1 XN7       0.087800
      4 C06        -55.6420    47.2250   -17.4720 c          1 XN7       0.591100
      5 C09        -56.9570    47.7550   -15.3820 c3         1 XN7       0.104000
      6 C10        -58.2180    46.8600   -15.4810 c3         1 XN7       0.133600
      7 N04        -53.9510    47.1800   -19.4290 n7         1 XN7      -0.860400
      8 N08        -56.3780    48.0920   -16.6920 ns         1 XN7      -0.496900
      9 O01        -54.3780    49.8910   -21.0850 oh         1 XN7      -0.668000
     10 O07        -55.3630    46.0920   -17.0920 o          1 XN7      -0.619100
     11 O11        -59.2560    47.5200   -16.2260 oh         1 XN7      -0.667000
     12 H1         -52.6940    49.1000   -22.0130 h1         1 XN7       0.024700
     13 H2         -52.5280    49.3340   -20.2680 h1         1 XN7       0.024700
     14 H3         -54.4570    47.2770   -21.5080 h1         1 XN7       0.037200
     15 H4         -52.7670    46.9210   -21.1630 h1         1 XN7       0.037200
     16 H5         -55.0640    48.8780   -18.7350 h1         1 XN7       0.054700
     17 H6         -56.0490    47.6520   -19.5390 h1         1 XN7       0.054700
     18 H7         -56.1970    47.2390   -14.7800 h1         1 XN7       0.062200
     19 H8         -57.2160    48.6860   -14.8610 h1         1 XN7       0.062200
     20 H9         -58.5670    46.6310   -14.4650 h1         1 XN7       0.031200
     21 H10        -57.9490    45.9100   -15.9610 h1         1 XN7       0.031200
     22 H11        -54.0630    46.1570   -19.3760 hn         1 XN7       0.437000
     23 H13        -56.5840    49.0030   -17.0870 hn         1 XN7       0.322500
     24 H14        -54.0420    50.8050   -21.2180 ho         1 XN7       0.442000
     25 H15        -60.0210    46.9020   -16.2640 ho         1 XN7       0.445000
@<TRIPOS>BOND
     1     1     2 1   
     2     1     9 1   
     3     1    12 1   
     4     1    13 1   
     5     2     7 1   
     6     2    14 1   
     7     2    15 1   
     8     3     4 1   
     9     3     7 1   
    10     3    16 1   
    11     3    17 1   
    12     4     8 1   
    13     4    10 2   
    14     5     6 1   
    15     5     8 1   
    16     5    18 1   
    17     5    19 1   
    18     6    11 1   
    19     6    20 1   
    20     6    21 1   
    21     7    22 1   
    22     8    23 1   
    23     9    24 1   
    24    11    25 1   
@<TRIPOS>SUBSTRUCTURE
     1 XN7         1 TEMP              0 ****  ****    0 ROOT
