@<TRIPOS>MOLECULE
XN7
   25    24     1     0     0
SMALL
abcg2


@<TRIPOS>ATOM
      1 C02        -53.2440    48.9040   -21.1580 c3         1 XN7       0.160600
      2 C03        -53.7560    47.5540   -20.7030 c3         1 XN7       0.167800
      3 C05        -55.2160    47.9740   -18.7900 c3         1 XN7       0.087800
      4 C06        -55.5750    47.3580   -17.4480 c          1 XN7       0.591100
      5 C09        -56.9530    47.6340   -15.4370 c3         1 XN7       0.104000
      6 C10        -58.2000    46.7860   -15.6030 c3         1 XN7       0.133600
      7 N04        -53.9580    47.4520   -19.2700 n7         1 XN7      -0.860400
      8 N08        -56.3940    48.0990   -16.6860 ns         1 XN7      -0.496900
      9 O01        -54.2510    49.8820   -21.0070 oh         1 XN7      -0.668000
     10 O07        -55.1620    46.2570   -17.1120 o          1 XN7      -0.619100
     11 O11        -59.2060    47.5680   -16.2040 oh         1 XN7      -0.667000
     12 H1         -52.9310    48.8150   -22.2070 h1         1 XN7       0.024700
     13 H2         -52.3480    49.1530   -20.5750 h1         1 XN7       0.024700
     14 H3         -54.6630    47.3010   -21.2770 h1         1 XN7       0.037200
     15 H4         -52.9990    46.8190   -20.9830 h1         1 XN7       0.037200
     16 H5         -55.1810    49.0620   -18.7020 h1         1 XN7       0.054700
     17 H6         -56.0570    47.7560   -19.4710 h1         1 XN7       0.054700
     18 H7         -56.2040    47.0540   -14.8980 h1         1 XN7       0.062200
     19 H8         -57.1780    48.5080   -14.8250 h1         1 XN7       0.062200
     20 H9         -58.4980    46.4260   -14.6100 h1         1 XN7       0.031200
     21 H10        -57.9570    45.9020   -16.2040 h1         1 XN7       0.031200
     22 H11        -53.9050    46.4780   -19.0020 hn         1 XN7       0.437000
     23 H13        -56.7210    48.9810   -17.0470 hn         1 XN7       0.322500
     24 H14        -53.8770    50.7380   -21.2370 ho         1 XN7       0.442000
     25 H15        -59.9560    46.9990   -16.3950 ho         1 XN7       0.445000
@<TRIPOS>BOND
     1     1     2 1   
     2     1     9 1   
     3     1    12 1   
     4     1    13 1   
     5     2     7 1   
     6     2    14 1   
     7     2    15 1   
     8     3     4 1   
     9     3     7 1   
    10     3    16 1   
    11     3    17 1   
    12     4     8 1   
    13     4    10 2   
    14     5     6 1   
    15     5     8 1   
    16     5    18 1   
    17     5    19 1   
    18     6    11 1   
    19     6    20 1   
    20     6    21 1   
    21     7    22 1   
    22     8    23 1   
    23     9    24 1   
    24    11    25 1   
@<TRIPOS>SUBSTRUCTURE
     1 XN7         1 TEMP              0 ****  ****    0 ROOT
