@<TRIPOS>MOLECULE
XN9
   33    35     1     0     0
SMALL
abcg2


@<TRIPOS>ATOM
      1 N1          -8.4440   -50.7870   -27.7460 nu         1 XN9      -0.924100
      2 N3         -11.9930   -52.7120   -26.3770 na         1 XN9      -0.508000
      3 C4          -6.9880   -50.0610   -29.6590 ca         1 XN9      -0.223300
      4 C5          -7.5830   -49.1470   -30.5260 ca         1 XN9      -0.036000
      5 C6          -7.2990   -49.1200   -31.8870 ca         1 XN9      -0.195000
      6 C7          -7.2960   -49.9990   -28.1790 c3         1 XN9       0.287100
      7 C8          -8.4020   -52.0970   -27.4430 ca         1 XN9       0.681900
      8 C10         -8.1870   -54.7750   -26.7780 ca         1 XN9      -0.242000
      9 C13        -10.8340   -52.1120   -26.7840 cc         1 XN9       0.483000
     10 C1          -6.3820   -50.0410   -32.3600 ca         1 XN9       0.206000
     11 C2          -5.7670   -50.9730   -31.5520 ca         1 XN9      -0.202000
     12 C3          -6.0770   -50.9930   -30.1890 ca         1 XN9       0.205100
     13 F           -6.0740   -50.0350   -33.6850 f          1 XN9      -0.185000
     14 O           -5.4520   -51.9130   -29.4200 oh         1 XN9      -0.589100
     15 N2          -7.2380   -52.7480   -27.6190 nb         1 XN9      -0.811000
     16 C9          -7.1380   -54.0410   -27.2970 ca         1 XN9       0.429900
     17 C11         -9.4060   -54.1260   -26.6110 ca         1 XN9      -0.004000
     18 C12         -9.5550   -52.7860   -26.9410 ca         1 XN9      -0.275500
     19 C14        -12.9380   -51.7400   -26.3700 cc         1 XN9       0.379400
     20 N4         -12.4200   -50.6000   -26.7470 nd         1 XN9      -0.343000
     21 N5         -11.0880   -50.8330   -27.0100 nd         1 XN9      -0.415000
     22 H1          -9.3380   -50.3240   -27.6270 hn         1 XN9       0.546000
     23 H2         -12.1380   -53.6800   -26.1300 hn         1 XN9       0.363000
     24 H3          -8.2800   -48.4240   -30.1200 ha         1 XN9       0.113000
     25 H4          -7.7590   -48.4040   -32.5540 ha         1 XN9       0.134000
     26 H5          -6.4220   -50.2950   -27.5970 h1         1 XN9       0.063200
     27 H6          -7.5250   -48.9670   -27.9170 h1         1 XN9       0.063200
     28 H7          -8.0640   -55.8170   -26.5240 ha         1 XN9       0.132000
     29 H8          -5.0640   -51.6860   -31.9620 ha         1 XN9       0.144000
     30 H9          -6.0470   -52.1690   -28.6460 ho         1 XN9       0.523000
     31 H10         -6.1710   -54.4970   -27.4750 h4         1 XN9       0.027100
     32 H11        -10.2450   -54.6810   -26.2140 ha         1 XN9       0.104000
     33 H12        -13.9640   -51.9120   -26.0900 h5         1 XN9       0.067100
@<TRIPOS>BOND
     1     1     6 1   
     2     1     7 1   
     3     1    22 1   
     4     2     9 1   
     5     2    19 1   
     6     2    23 1   
     7     3     4 ar  
     8     3     6 1   
     9     3    12 ar  
    10     4     5 ar  
    11     4    24 1   
    12     5    10 ar  
    13     5    25 1   
    14     6    26 1   
    15     6    27 1   
    16     7    15 ar  
    17     7    18 ar  
    18     8    16 ar  
    19     8    17 ar  
    20     8    28 1   
    21     9    18 1   
    22     9    21 2   
    23    10    11 ar  
    24    10    13 1   
    25    11    12 ar  
    26    11    29 1   
    27    12    14 1   
    28    14    30 1   
    29    15    16 ar  
    30    16    31 1   
    31    17    18 ar  
    32    17    32 1   
    33    19    20 2   
    34    19    33 1   
    35    20    21 1   
@<TRIPOS>SUBSTRUCTURE
     1 XN9         1 TEMP              0 ****  ****    0 ROOT
