@<TRIPOS>MOLECULE
XN9
   33    35     1     0     0
SMALL
No Charge or Current Charge


@<TRIPOS>ATOM
      1 N1          -8.1220   -50.7040   -27.4360 nu         1 XN9      -0.924100
      2 N3         -11.9240   -52.6470   -26.7540 na         1 XN9      -0.508000
      3 C4          -6.9720   -50.0660   -29.5050 ca         1 XN9      -0.223300
      4 C5          -7.6840   -49.1420   -30.2990 ca         1 XN9      -0.036000
      5 C6          -7.6290   -49.2220   -31.7000 ca         1 XN9      -0.195000
      6 C7          -7.0120   -49.9240   -27.9890 c3         1 XN9       0.287100
      7 C8          -8.2130   -52.0580   -27.2350 ca         1 XN9       0.681900
      8 C10         -8.1280   -54.7520   -26.8070 ca         1 XN9      -0.242000
      9 C13        -10.7260   -52.0380   -26.9980 cc         1 XN9       0.483000
     10 C1          -6.8600   -50.2210   -32.3130 ca         1 XN9       0.206000
     11 C2          -6.1510   -51.1440   -31.5350 ca         1 XN9      -0.202000
     12 C3          -6.2120   -51.0720   -30.1370 ca         1 XN9       0.205100
     13 F           -6.8040   -50.2950   -33.6600 f          1 XN9      -0.185000
     14 O           -5.5360   -51.9970   -29.4060 oh         1 XN9      -0.589100
     15 N2          -7.0170   -52.6610   -27.2590 nb         1 XN9      -0.811000
     16 C9          -6.9780   -53.9920   -27.0400 ca         1 XN9       0.429900
     17 C11         -9.3760   -54.1210   -26.7930 ca         1 XN9      -0.004000
     18 C12         -9.4330   -52.7280   -27.0080 ca         1 XN9      -0.275500
     19 C14        -12.8890   -51.6810   -26.8340 cc         1 XN9       0.379400
     20 N4         -12.3070   -50.5290   -27.1160 nd         1 XN9      -0.343000
     21 N5         -10.9550   -50.7530   -27.2190 nd         1 XN9      -0.415000
     22 H1          -9.0380   -50.2540   -27.4360 hn         1 XN9       0.546000
     23 H2         -12.0730   -53.6230   -26.5520 hn         1 XN9       0.363000
     24 H3          -8.2750   -48.3570   -29.8300 ha         1 XN9       0.113000
     25 H4          -8.1760   -48.5090   -32.3110 ha         1 XN9       0.134000
     26 H5          -6.0520   -50.2160   -27.5400 h1         1 XN9       0.063200
     27 H6          -7.1550   -48.8620   -27.7440 h1         1 XN9       0.063200
     28 H7          -8.0440   -55.8230   -26.6420 ha         1 XN9       0.132000
     29 H8          -5.5620   -51.9190   -32.0170 ha         1 XN9       0.144000
     30 H9          -6.0590   -52.1440   -28.5640 ho         1 XN9       0.523000
     31 H10         -5.9950   -54.4610   -27.0580 h4         1 XN9       0.027100
     32 H11        -10.2710   -54.7130   -26.6150 ha         1 XN9       0.104000
     33 H12        -13.9470   -51.8670   -26.6850 h5         1 XN9       0.067100
@<TRIPOS>BOND
     1     1     6 1   
     2     1     7 1   
     3     1    22 1   
     4     2     9 1   
     5     2    19 1   
     6     2    23 1   
     7     3     4 ar  
     8     3     6 1   
     9     3    12 ar  
    10     4     5 ar  
    11     4    24 1   
    12     5    10 ar  
    13     5    25 1   
    14     6    26 1   
    15     6    27 1   
    16     7    15 ar  
    17     7    18 ar  
    18     8    16 ar  
    19     8    17 ar  
    20     8    28 1   
    21     9    18 1   
    22     9    21 2   
    23    10    11 ar  
    24    10    13 1   
    25    11    12 ar  
    26    11    29 1   
    27    12    14 1   
    28    14    30 1   
    29    15    16 ar  
    30    16    31 1   
    31    17    18 ar  
    32    17    32 1   
    33    19    20 2   
    34    19    33 1   
    35    20    21 1   
@<TRIPOS>SUBSTRUCTURE
     1 XN9         1 TEMP              0 ****  ****    0 ROOT
