@<TRIPOS>MOLECULE
XNA
   55    59     1     0     0
SMALL
abcg2


@<TRIPOS>ATOM
      1 C01         -3.8700     3.6670     0.9940 c3         1 XNA      -0.052800
      2 C02         -4.4180     2.3930     0.4200 ca         1 XNA      -0.117300
      3 C03         -5.7850     2.1420     0.4390 ca         1 XNA      -0.088000
      4 C04         -6.3190     0.9690    -0.0770 ca         1 XNA      -0.129000
      5 C05         -5.4680     0.0280    -0.6340 ca         1 XNA      -0.095000
      6 C06         -4.1000     0.2520    -0.6750 ca         1 XNA      -0.125000
      7 C07         -3.5670     1.4270    -0.1460 ca         1 XNA       0.303000
      8 N08         -2.2020     1.7220    -0.1770 nu         1 XNA      -0.922900
      9 C09         -1.1300     0.9090    -0.2340 ca         1 XNA       0.441900
     10 N10         -1.2290    -0.3930    -0.3110 nb         1 XNA      -0.316000
     11 C11         -0.0940    -1.1310    -0.3480 ca         1 XNA       0.441900
     12 N12          1.1380    -0.6420    -0.3210 nb         1 XNA      -0.297000
     13 C13          1.2340     0.6930    -0.2400 ca         1 XNA      -0.028000
     14 C14          2.5260     1.3340    -0.1860 ca         1 XNA       0.394900
     15 N15          2.6170     2.6490    -0.0900 nb         1 XNA      -0.279000
     16 C16          1.4800     3.3580    -0.0580 ca         1 XNA       0.150900
     17 N17          0.2600     2.8990    -0.1020 nb         1 XNA      -0.212000
     18 C18          0.1560     1.5520    -0.1920 ca         1 XNA      -0.140000
     19 N19          3.6190     0.5770    -0.2350 nu         1 XNA      -0.908100
     20 C20          4.9690     1.0890    -0.1410 c3         1 XNA       0.259800
     21 C21          5.9530     0.0160    -0.5120 cx         1 XNA      -0.154700
     22 C22          6.2750    -1.0630     0.4800 cx         1 XNA      -0.125900
     23 C23          7.2900    -0.0100     0.1570 cx         1 XNA      -0.125900
     24 N24         -0.2520    -2.4700    -0.4250 nh         1 XNA      -0.779300
     25 C25          0.8720    -3.3840    -0.4980 c6         1 XNA       0.190300
     26 C26          0.7840    -4.4120     0.6260 c6         1 XNA       0.128800
     27 N27         -0.4910    -5.1080     0.6750 n7         1 XNA      -0.844400
     28 C28         -1.5980    -4.1680     0.6900 c6         1 XNA       0.128800
     29 C29         -1.5420    -3.1320    -0.4300 c6         1 XNA       0.190300
     30 H01         -3.4150     4.3010     0.2280 hc         1 XNA       0.045367
     31 H01A        -4.6610     4.2510     1.4600 hc         1 XNA       0.045367
     32 H01B        -3.1080     3.4790     1.7530 hc         1 XNA       0.045367
     33 H03         -6.4420     2.8840     0.8760 ha         1 XNA       0.111000
     34 H04         -7.3860     0.7960    -0.0430 ha         1 XNA       0.114000
     35 H05         -5.8650    -0.8900    -1.0490 ha         1 XNA       0.112000
     36 H06         -3.4510    -0.4840    -1.1240 ha         1 XNA       0.139000
     37 HN08        -1.9450     2.6970    -0.0880 hn         1 XNA       0.533000
     38 H16          1.6010     4.4340     0.0150 h5         1 XNA       0.044100
     39 HN19         3.4800    -0.4230    -0.2410 hn         1 XNA       0.521000
     40 H20          5.0750     1.9470    -0.8070 h1         1 XNA       0.057700
     41 H20A         5.1720     1.4490     0.8740 h1         1 XNA       0.057700
     42 H21          5.9290    -0.2800    -1.5560 hc         1 XNA       0.085700
     43 H22          5.7940    -1.0230     1.4500 hc         1 XNA       0.074200
     44 H22A         6.4400    -2.0660     0.1090 hc         1 XNA       0.074200
     45 H23          8.1510    -0.2890    -0.4370 hc         1 XNA       0.074200
     46 H23A         7.4940     0.7440     0.9070 hc         1 XNA       0.074200
     47 H25          0.8480    -3.8990    -1.4670 h1         1 XNA       0.062200
     48 H25A         1.8030    -2.8270    -0.4430 h1         1 XNA       0.062200
     49 H26          1.5880    -5.1410     0.5130 h1         1 XNA       0.062200
     50 H26A         0.9390    -3.9060     1.5840 h1         1 XNA       0.062200
     51 HN27        -0.5720    -5.7060    -0.1400 hn         1 XNA       0.403000
     52 H28         -2.5380    -4.7180     0.6280 h1         1 XNA       0.062200
     53 H28A        -1.5930    -3.6450     1.6520 h1         1 XNA       0.062200
     54 H29         -2.3360    -2.4010    -0.3120 h1         1 XNA       0.062200
     55 H29A        -1.6870    -3.6260    -1.3990 h1         1 XNA       0.062200
@<TRIPOS>BOND
     1     1     2 1   
     2     1    30 1   
     3     1    31 1   
     4     1    32 1   
     5     2     3 ar  
     6     2     7 ar  
     7     3     4 ar  
     8     3    33 1   
     9     4     5 ar  
    10     4    34 1   
    11     5     6 ar  
    12     5    35 1   
    13     6     7 ar  
    14     6    36 1   
    15     7     8 1   
    16     8     9 1   
    17     8    37 1   
    18     9    10 ar  
    19     9    18 ar  
    20    10    11 ar  
    21    11    12 ar  
    22    11    24 1   
    23    12    13 ar  
    24    13    14 ar  
    25    13    18 ar  
    26    14    15 ar  
    27    14    19 1   
    28    15    16 ar  
    29    16    17 ar  
    30    16    38 1   
    31    17    18 ar  
    32    19    20 1   
    33    19    39 1   
    34    20    21 1   
    35    20    40 1   
    36    20    41 1   
    37    21    22 1   
    38    21    23 1   
    39    21    42 1   
    40    22    23 1   
    41    22    43 1   
    42    22    44 1   
    43    23    45 1   
    44    23    46 1   
    45    24    25 1   
    46    24    29 1   
    47    25    26 1   
    48    25    47 1   
    49    25    48 1   
    50    26    27 1   
    51    26    49 1   
    52    26    50 1   
    53    27    28 1   
    54    27    51 1   
    55    28    29 1   
    56    28    52 1   
    57    28    53 1   
    58    29    54 1   
    59    29    55 1   
@<TRIPOS>SUBSTRUCTURE
     1 XNA         1 TEMP              0 ****  ****    0 ROOT
