@<TRIPOS>MOLECULE
XNA
   55    59     1     0     0
SMALL
No Charge or Current Charge


@<TRIPOS>ATOM
      1 C01         -4.0030     3.7150     1.1490 c3         1 XNA      -0.052800
      2 C02         -4.5210     2.4400     0.4820 ca         1 XNA      -0.117300
      3 C03         -5.9080     2.1800     0.4890 ca         1 XNA      -0.088000
      4 C04         -6.4200     1.0200    -0.1120 ca         1 XNA      -0.129000
      5 C05         -5.5520     0.1120    -0.7340 ca         1 XNA      -0.095000
      6 C06         -4.1700     0.3620    -0.7460 ca         1 XNA      -0.125000
      7 C07         -3.6390     1.5140    -0.1300 ca         1 XNA       0.303000
      8 N08         -2.2630     1.7830    -0.1490 nu         1 XNA      -0.922900
      9 C09         -1.1060     1.0050    -0.1840 ca         1 XNA       0.441900
     10 N10         -1.2470    -0.3210    -0.0660 nb         1 XNA      -0.316000
     11 C11         -0.1240    -1.0600    -0.0770 ca         1 XNA       0.441900
     12 N12          1.1310    -0.5750    -0.1830 nb         1 XNA      -0.297000
     13 C13          1.2910     0.7660    -0.2870 ca         1 XNA      -0.028000
     14 C14          2.5670     1.3790    -0.3950 ca         1 XNA       0.394900
     15 N15          2.7110     2.7140    -0.4890 nb         1 XNA      -0.279000
     16 C16          1.5780     3.4400    -0.4780 ca         1 XNA       0.150900
     17 N17          0.3180     2.9660    -0.3830 nb         1 XNA      -0.212000
     18 C18          0.1610     1.6220    -0.2870 ca         1 XNA      -0.140000
     19 N19          3.7370     0.6180    -0.4000 nu         1 XNA      -0.908100
     20 C20          5.1200     1.1020    -0.3430 c3         1 XNA       0.259800
     21 C21          6.0810    -0.0780    -0.3830 cx         1 XNA      -0.154700
     22 C22          6.4900    -0.8000     0.8830 cx         1 XNA      -0.125900
     23 C23          7.4910     0.0590     0.1470 cx         1 XNA      -0.125900
     24 N24         -0.2730    -2.4700     0.0410 nh         1 XNA      -0.779300
     25 C25          0.8800    -3.4020    -0.2390 c6         1 XNA       0.190300
     26 C26          0.7200    -4.8100     0.4240 c6         1 XNA       0.128800
     27 N27         -0.5990    -5.4430     0.1430 n7         1 XNA      -0.844400
     28 C28         -1.7030    -4.5390     0.5710 c6         1 XNA       0.128800
     29 C29         -1.6280    -3.1220    -0.0870 c6         1 XNA       0.190300
     30 H01         -3.5400     4.3850     0.4150 hc         1 XNA       0.045367
     31 H01A        -4.8090     4.2750     1.6370 hc         1 XNA       0.045367
     32 H01B        -3.2570     3.4840     1.9180 hc         1 XNA       0.045367
     33 H03         -6.5930     2.8810     0.9620 ha         1 XNA       0.111000
     34 H04         -7.4910     0.8300    -0.1020 ha         1 XNA       0.114000
     35 H05         -5.9490    -0.7810    -1.2120 ha         1 XNA       0.112000
     36 H06         -3.5170    -0.3380    -1.2570 ha         1 XNA       0.139000
     37 HN08        -2.0390     2.7660    -0.0170 hn         1 XNA       0.533000
     38 H16          1.6890     4.5210    -0.5540 h5         1 XNA       0.044100
     39 HN19         3.5890    -0.3840    -0.2860 hn         1 XNA       0.521000
     40 H20          5.3270     1.7620    -1.1970 h1         1 XNA       0.057700
     41 H20A         5.2810     1.6830     0.5770 h1         1 XNA       0.057700
     42 H21          5.9620    -0.6800    -1.2810 hc         1 XNA       0.085700
     43 H22          6.1050    -0.4300     1.8300 hc         1 XNA       0.074200
     44 H22A         6.6120    -1.8790     0.8330 hc         1 XNA       0.074200
     45 H23          8.2880    -0.4440    -0.3970 hc         1 XNA       0.074200
     46 H23A         7.7800     1.0030     0.6030 hc         1 XNA       0.074200
     47 H25          0.9890    -3.5350    -1.3260 h1         1 XNA       0.062200
     48 H25A         1.8280    -2.9820     0.1280 h1         1 XNA       0.062200
     49 H26          1.5310    -5.4670     0.0750 h1         1 XNA       0.062200
     50 H26A         0.8430    -4.6990     1.5120 h1         1 XNA       0.062200
     51 HN27        -0.6760    -5.5860    -0.8720 hn         1 XNA       0.403000
     52 H28         -2.6740    -4.9980     0.3290 h1         1 XNA       0.062200
     53 H28A        -1.6680    -4.4190     1.6640 h1         1 XNA       0.062200
     54 H29         -2.4100    -2.5100     0.3860 h1         1 XNA       0.062200
     55 H29A        -1.8930    -3.2130    -1.1510 h1         1 XNA       0.062200
@<TRIPOS>BOND
     1     1     2 1   
     2     1    30 1   
     3     1    31 1   
     4     1    32 1   
     5     2     3 ar  
     6     2     7 ar  
     7     3     4 ar  
     8     3    33 1   
     9     4     5 ar  
    10     4    34 1   
    11     5     6 ar  
    12     5    35 1   
    13     6     7 ar  
    14     6    36 1   
    15     7     8 1   
    16     8     9 1   
    17     8    37 1   
    18     9    10 ar  
    19     9    18 ar  
    20    10    11 ar  
    21    11    12 ar  
    22    11    24 1   
    23    12    13 ar  
    24    13    14 ar  
    25    13    18 ar  
    26    14    15 ar  
    27    14    19 1   
    28    15    16 ar  
    29    16    17 ar  
    30    16    38 1   
    31    17    18 ar  
    32    19    20 1   
    33    19    39 1   
    34    20    21 1   
    35    20    40 1   
    36    20    41 1   
    37    21    22 1   
    38    21    23 1   
    39    21    42 1   
    40    22    23 1   
    41    22    43 1   
    42    22    44 1   
    43    23    45 1   
    44    23    46 1   
    45    24    25 1   
    46    24    29 1   
    47    25    26 1   
    48    25    47 1   
    49    25    48 1   
    50    26    27 1   
    51    26    49 1   
    52    26    50 1   
    53    27    28 1   
    54    27    51 1   
    55    28    29 1   
    56    28    52 1   
    57    28    53 1   
    58    29    54 1   
    59    29    55 1   
@<TRIPOS>SUBSTRUCTURE
     1 XNA         1 TEMP              0 ****  ****    0 ROOT
