@<TRIPOS>MOLECULE
XNB
   56    60     1     0     0
SMALL
bcc


@<TRIPOS>ATOM
      1 C01          5.5260    -2.9100    -1.7220 c3         1 XNB      -0.029000
      2 S02          3.9170    -2.3320    -1.1560 ss         1 XNB      -0.235000
      3 C03          4.3190    -0.9390    -0.1520 ca         1 XNB       0.004900
      4 C04          5.5750    -0.3380    -0.1320 ca         1 XNB      -0.124000
      5 C05          5.8030     0.7870     0.6460 ca         1 XNB      -0.128000
      6 C06          4.7800     1.3220     1.4160 ca         1 XNB      -0.122000
      7 C07          3.5320     0.7190     1.4210 ca         1 XNB      -0.114000
      8 C08          3.2920    -0.4070     0.6410 ca         1 XNB       0.166600
      9 N09          2.0500    -1.0590     0.6500 nu         1 XNB      -0.739300
     10 C10          0.8350    -0.4860     0.5590 ca         1 XNB       0.708900
     11 N11          0.7010     0.8090     0.4450 nb         1 XNB      -0.845000
     12 C12         -0.5430     1.3290     0.3480 ca         1 XNB       0.966900
     13 N13         -1.6680     0.6280     0.3600 nb         1 XNB      -0.824000
     14 C14         -1.5230    -0.7020     0.4650 ca         1 XNB       0.234000
     15 C15         -2.6790    -1.5660     0.4610 ca         1 XNB       0.655900
     16 N16         -2.5340    -2.8770     0.5460 nb         1 XNB      -0.806000
     17 C17         -1.2910    -3.3680     0.6540 ca         1 XNB       0.672900
     18 N18         -0.1730    -2.6960     0.6740 nb         1 XNB      -0.728000
     19 C19         -0.3100    -1.3520     0.5740 ca         1 XNB       0.126000
     20 N20         -3.8870    -1.0160     0.3690 nu         1 XNB      -0.853900
     21 C21         -5.1190    -1.7690     0.2690 c3         1 XNB       0.259800
     22 C22         -6.2950    -0.8520     0.4470 cx         1 XNB      -0.152700
     23 C23         -7.5670    -1.1360    -0.2850 cx         1 XNB      -0.126400
     24 C24         -6.7190     0.0310    -0.6900 cx         1 XNB      -0.126400
     25 N25         -0.6200     2.6720     0.2260 nh         1 XNB      -0.780300
     26 C26         -1.8850     3.3790     0.1710 c6         1 XNB       0.229300
     27 C27         -1.8850     4.3580    -0.9920 c6         1 XNB       0.137800
     28 N28         -0.7510     5.2570    -0.8750 n7         1 XNB      -0.807200
     29 C29          0.4960     4.5150    -0.9050 c6         1 XNB       0.137800
     30 C30          0.5400     3.5430     0.2620 c6         1 XNB       0.229300
     31 H01          5.3320    -3.8230    -2.2820 h1         1 XNB       0.066033
     32 H01A         6.0050    -2.1930    -2.3860 h1         1 XNB       0.066033
     33 H01B         6.1820    -3.1460    -0.8860 h1         1 XNB       0.066033
     34 H04          6.3810    -0.7330    -0.7350 ha         1 XNB       0.132000
     35 H05          6.7830     1.2450     0.6430 ha         1 XNB       0.132000
     36 H06          4.9520     2.2000     2.0240 ha         1 XNB       0.134000
     37 H07          2.7400     1.1210     2.0350 ha         1 XNB       0.151000
     38 HN09         2.0430    -2.0710     0.6940 hn         1 XNB       0.486800
     39 H17         -1.2190    -4.4480     0.7280 h5         1 XNB       0.043100
     40 HN20        -3.9200    -0.0160     0.2440 hn         1 XNB       0.464800
     41 H21         -5.1770    -2.2770    -0.7000 h1         1 XNB       0.057200
     42 H21A        -5.1270    -2.5500     1.0320 h1         1 XNB       0.057200
     43 H22         -6.3950    -0.4330     1.4430 hc         1 XNB       0.085700
     44 H23         -7.5930    -1.9960    -0.9440 hc         1 XNB       0.073950
     45 H23A        -8.5010    -0.9400     0.2240 hc         1 XNB       0.073950
     46 H24         -7.0720     1.0270    -0.4560 hc         1 XNB       0.073950
     47 H24A        -6.1700    -0.0380    -1.6210 hc         1 XNB       0.073950
     48 H26         -2.6980     2.6680     0.0650 h1         1 XNB       0.064450
     49 H26A        -2.0340     3.9270     1.1090 h1         1 XNB       0.064450
     50 H27         -1.8770     3.7840    -1.9320 h1         1 XNB       0.039450
     51 H27A        -2.8100     4.9360    -0.9690 h1         1 XNB       0.039450
     52 HN28        -0.7680     5.9270    -1.6320 hn         1 XNB       0.357800
     53 H29          0.6290     3.9470    -1.8390 h1         1 XNB       0.039450
     54 H29A         1.3340     5.2090    -0.8200 h1         1 XNB       0.039450
     55 H30          0.5410     4.1060     1.2030 h1         1 XNB       0.064450
     56 H30A         1.4470     2.9470     0.2270 h1         1 XNB       0.064450
@<TRIPOS>BOND
     1     1     2 1   
     2     1    31 1   
     3     1    32 1   
     4     1    33 1   
     5     2     3 1   
     6     3     4 ar  
     7     3     8 ar  
     8     4     5 ar  
     9     4    34 1   
    10     5     6 ar  
    11     5    35 1   
    12     6     7 ar  
    13     6    36 1   
    14     7     8 ar  
    15     7    37 1   
    16     8     9 1   
    17     9    10 1   
    18     9    38 1   
    19    10    11 ar  
    20    10    19 ar  
    21    11    12 ar  
    22    12    13 ar  
    23    12    25 1   
    24    13    14 ar  
    25    14    15 ar  
    26    14    19 ar  
    27    15    16 ar  
    28    15    20 1   
    29    16    17 ar  
    30    17    18 ar  
    31    17    39 1   
    32    18    19 ar  
    33    20    21 1   
    34    20    40 1   
    35    21    22 1   
    36    21    41 1   
    37    21    42 1   
    38    22    23 1   
    39    22    24 1   
    40    22    43 1   
    41    23    24 1   
    42    23    44 1   
    43    23    45 1   
    44    24    46 1   
    45    24    47 1   
    46    25    26 1   
    47    25    30 1   
    48    26    27 1   
    49    26    48 1   
    50    26    49 1   
    51    27    28 1   
    52    27    50 1   
    53    27    51 1   
    54    28    29 1   
    55    28    52 1   
    56    29    30 1   
    57    29    53 1   
    58    29    54 1   
    59    30    55 1   
    60    30    56 1   
@<TRIPOS>SUBSTRUCTURE
     1 XNB         1 TEMP              0 ****  ****    0 ROOT
