@<TRIPOS>MOLECULE
XNB
   56    60     1     0     0
SMALL
No Charge or Current Charge


@<TRIPOS>ATOM
      1 C01          5.6630    -3.4760    -1.4240 c3         1 XNB       0.018900
      2 S02          4.1720    -2.9350    -0.4760 ss         1 XNB      -0.156000
      3 C03          4.5170    -1.2440     0.0640 ca         1 XNB      -0.122000
      4 C04          5.8360    -0.7390     0.0700 ca         1 XNB      -0.106000
      5 C05          6.0950     0.5710     0.5010 ca         1 XNB      -0.110000
      6 C06          5.0440     1.3870     0.9420 ca         1 XNB      -0.104000
      7 C07          3.7290     0.8930     0.9450 ca         1 XNB      -0.096000
      8 C08          3.4510    -0.4150     0.4950 ca         1 XNB       0.305000
      9 N09          2.1540    -0.9440     0.4960 nu         1 XNB      -0.932900
     10 C10          0.8620    -0.4240     0.4320 ca         1 XNB       0.445900
     11 N11          0.7280     0.8940     0.2390 nb         1 XNB      -0.319000
     12 C12         -0.5230     1.3770     0.1570 ca         1 XNB       0.440900
     13 N13         -1.6530     0.6430     0.2380 nb         1 XNB      -0.298000
     14 C14         -1.5340    -0.6940     0.4190 ca         1 XNB      -0.029000
     15 C15         -2.6570    -1.5580     0.5100 ca         1 XNB       0.392900
     16 N16         -2.5230    -2.8860     0.6810 nb         1 XNB      -0.280000
     17 C17         -1.2640    -3.3550     0.7640 ca         1 XNB       0.146900
     18 N18         -0.1280    -2.6300     0.6920 nb         1 XNB      -0.202000
     19 C19         -0.2510    -1.2900     0.5200 ca         1 XNB      -0.137000
     20 N20         -3.9590    -1.0640     0.4190 nu         1 XNB      -0.909100
     21 C21         -5.2040    -1.8330     0.3330 c3         1 XNB       0.259800
     22 C22         -6.3930    -0.8850     0.2590 cx         1 XNB      -0.152700
     23 C23         -7.7120    -1.3460    -0.3200 cx         1 XNB      -0.126400
     24 C24         -6.8750    -0.3330    -1.0650 cx         1 XNB      -0.126400
     25 N25         -0.6670     2.7760    -0.0450 nh         1 XNB      -0.780300
     26 C26         -1.9950     3.4610     0.1640 c6         1 XNB       0.229300
     27 C27         -2.1120     4.8320    -0.5840 c6         1 XNB       0.137800
     28 N28         -0.9650     5.7460    -0.3240 n7         1 XNB      -0.862400
     29 C29          0.3210     5.0710    -0.6530 c6         1 XNB       0.137800
     30 C30          0.5130     3.7070     0.0930 c6         1 XNB       0.229300
     31 H01          5.4720    -4.4590    -1.8720 h1         1 XNB       0.066033
     32 H01A         5.8780    -2.7540    -2.2220 h1         1 XNB       0.066033
     33 H01B         6.5270    -3.5540    -0.7530 h1         1 XNB       0.066033
     34 H04          6.6740    -1.3520    -0.2470 ha         1 XNB       0.114000
     35 H05          7.1150     0.9510     0.5030 ha         1 XNB       0.114000
     36 H06          5.2470     2.3980     1.2900 ha         1 XNB       0.116000
     37 H07          2.9350     1.5300     1.3190 ha         1 XNB       0.133000
     38 HN09         2.1470    -1.9570     0.4070 hn         1 XNB       0.542000
     39 H17         -1.1490    -4.4290     0.9020 h5         1 XNB       0.043100
     40 HN20        -4.0190    -0.0600     0.2480 hn         1 XNB       0.520000
     41 H21         -5.1890    -2.4820    -0.5550 h1         1 XNB       0.057200
     42 H21A        -5.3140    -2.4770     1.2170 h1         1 XNB       0.057200
     43 H22         -6.4520    -0.2250     1.1220 hc         1 XNB       0.085700
     44 H23         -7.7700    -2.3530    -0.7280 hc         1 XNB       0.073950
     45 H23A        -8.6250    -0.9970     0.1580 hc         1 XNB       0.073950
     46 H24         -7.2250     0.6960    -1.0880 hc         1 XNB       0.073950
     47 H24A        -6.3700    -0.6620    -1.9710 hc         1 XNB       0.073950
     48 H26         -2.8280     2.8340    -0.1850 h1         1 XNB       0.064450
     49 H26A        -2.1530     3.6360     1.2390 h1         1 XNB       0.064450
     50 H27         -2.1740     4.6350    -1.6650 h1         1 XNB       0.039450
     51 H27A        -3.0500     5.3260    -0.2910 h1         1 XNB       0.039450
     52 HN28        -1.0640     6.5860    -0.9100 hn         1 XNB       0.413000
     53 H29          0.3590     4.8840    -1.7360 h1         1 XNB       0.039450
     54 H29A         1.1600     5.7390    -0.4090 h1         1 XNB       0.039450
     55 H30          0.6960     3.9140     1.1580 h1         1 XNB       0.064450
     56 H30A         1.4300     3.2510    -0.3070 h1         1 XNB       0.064450
@<TRIPOS>BOND
     1     1     2 1   
     2     1    31 1   
     3     1    32 1   
     4     1    33 1   
     5     2     3 1   
     6     3     4 ar  
     7     3     8 ar  
     8     4     5 ar  
     9     4    34 1   
    10     5     6 ar  
    11     5    35 1   
    12     6     7 ar  
    13     6    36 1   
    14     7     8 ar  
    15     7    37 1   
    16     8     9 1   
    17     9    10 1   
    18     9    38 1   
    19    10    11 ar  
    20    10    19 ar  
    21    11    12 ar  
    22    12    13 ar  
    23    12    25 1   
    24    13    14 ar  
    25    14    15 ar  
    26    14    19 ar  
    27    15    16 ar  
    28    15    20 1   
    29    16    17 ar  
    30    17    18 ar  
    31    17    39 1   
    32    18    19 ar  
    33    20    21 1   
    34    20    40 1   
    35    21    22 1   
    36    21    41 1   
    37    21    42 1   
    38    22    23 1   
    39    22    24 1   
    40    22    43 1   
    41    23    24 1   
    42    23    44 1   
    43    23    45 1   
    44    24    46 1   
    45    24    47 1   
    46    25    26 1   
    47    25    30 1   
    48    26    27 1   
    49    26    48 1   
    50    26    49 1   
    51    27    28 1   
    52    27    50 1   
    53    27    51 1   
    54    28    29 1   
    55    28    52 1   
    56    29    30 1   
    57    29    53 1   
    58    29    54 1   
    59    30    55 1   
    60    30    56 1   
@<TRIPOS>SUBSTRUCTURE
     1 XNB         1 TEMP              0 ****  ****    0 ROOT
