@<TRIPOS>MOLECULE
XNC
   76    81     1     0     0
SMALL
abcg2


@<TRIPOS>ATOM
      1 O35          2.6790     0.2460     2.7930 o          1 XNC      -0.552100
      2 C16          2.4880     0.8050     1.7280 c          1 XNC       0.526600
      3 C17          3.4120     1.8940     1.2700 ca         1 XNC       0.306500
      4 C43          3.7900     2.8930     2.1550 ca         1 XNC      -0.119000
      5 C42          4.6680     3.8590     1.6900 ca         1 XNC      -0.079000
      6 C41          5.1460     3.7680     0.3930 ca         1 XNC      -0.150000
      7 C40          4.7350     2.7050    -0.4100 ca         1 XNC       0.350300
      8 C44          5.2360     2.5340    -1.8110 c3         1 XNC      -0.141400
      9 N39          3.8760     1.7940     0.0330 nb         1 XNC      -0.660000
     10 N7           1.4800     0.4700     0.8840 n          1 XNC      -0.224400
     11 C4           1.1110     1.2530    -0.2280 ca         1 XNC      -0.002000
     12 C3           0.6280     2.5420    -0.0500 ca         1 XNC      -0.126000
     13 C2           0.2820     3.3030    -1.1500 ca         1 XNC      -0.077000
     14 C8           0.6970    -0.7460     1.1230 c3         1 XNC       0.266200
     15 C9           1.2410    -1.8590     0.2670 ce         1 XNC      -0.448300
     16 S12          1.2860    -3.3720     1.1350 sy         1 XNC       1.072100
     17 O32         -0.0750    -3.7020     1.5700 o          1 XNC      -0.521000
     18 O33          2.2810    -3.2890     2.2100 o          1 XNC      -0.521000
     19 C13          1.8170    -4.5820    -0.0620 c6         1 XNC      -0.316400
     20 C14          2.8570    -4.0460    -1.0430 c6         1 XNC      -0.006000
     21 C37          4.1550    -3.6090    -0.3640 c3         1 XNC      -0.092100
     22 C38          3.1690    -5.1730    -2.0290 c3         1 XNC      -0.092100
     23 C15          2.2280    -2.8890    -1.8160 c6         1 XNC      -0.081200
     24 C10          1.7020    -1.7320    -1.0010 c2         1 XNC       0.297800
     25 N11          1.6940    -0.5880    -1.7370 nu         1 XNC      -0.797000
     26 C5           1.1940     0.6880    -1.4920 ca         1 XNC       0.270000
     27 C6           0.8150     1.4620    -2.6000 ca         1 XNC       0.099100
     28 O36          0.9250     0.8740    -3.8090 oh         1 XNC      -0.555100
     29 C1           0.3770     2.7650    -2.4260 ca         1 XNC      -0.184000
     30 C18         -0.7730    -0.4680     0.9120 ca         1 XNC      -0.172300
     31 C23         -1.4360     0.4440     1.7250 ca         1 XNC       0.224000
     32 F34         -0.7490     1.0330     2.7180 f          1 XNC      -0.174000
     33 C22         -2.7570     0.7880     1.5640 ca         1 XNC      -0.198000
     34 C21         -3.4880     0.1880     0.5360 ca         1 XNC       0.176100
     35 C20         -2.8700    -0.7500    -0.2850 ca         1 XNC      -0.223000
     36 C19         -1.5300    -1.0600    -0.0850 ca         1 XNC      -0.009000
     37 O24         -4.7690     0.5780     0.4250 os         1 XNC      -0.338100
     38 C25         -5.5590     0.0300    -0.6260 c3         1 XNC       0.210900
     39 C26         -6.9020     0.6910    -0.5620 ca         1 XNC      -0.098300
     40 C31         -7.1390     1.8690    -1.2630 ca         1 XNC      -0.083000
     41 C30         -8.3720     2.5020    -1.1820 ca         1 XNC      -0.115000
     42 C29         -9.3800     1.9600    -0.3950 ca         1 XNC      -0.097000
     43 C28         -9.1510     0.7850     0.3090 ca         1 XNC      -0.115000
     44 C27         -7.9170     0.1550     0.2260 ca         1 XNC      -0.083000
     45 H43          3.3990     2.9250     3.1620 ha         1 XNC       0.142000
     46 H42          4.9790     4.6730     2.3330 ha         1 XNC       0.122000
     47 H41          5.8310     4.5090     0.0040 ha         1 XNC       0.122000
     48 H44          5.8060     1.6090    -1.9040 hc         1 XNC       0.049367
     49 H44A         4.4010     2.4720    -2.5090 hc         1 XNC       0.049367
     50 H44B         5.8790     3.3590    -2.1130 hc         1 XNC       0.049367
     51 H3           0.5370     2.9430     0.9510 ha         1 XNC       0.134000
     52 H2          -0.0740     4.3160    -1.0200 ha         1 XNC       0.121000
     53 H8           0.8540    -1.0030     2.1740 h1         1 XNC       0.109700
     54 H13          2.1910    -5.4250     0.5250 h1         1 XNC       0.105700
     55 H13A         0.9210    -4.9030    -0.5970 h1         1 XNC       0.105700
     56 H37          4.5840    -4.4300     0.2120 hc         1 XNC       0.046200
     57 H37A         4.8840    -3.3250    -1.1250 hc         1 XNC       0.046200
     58 H37B         4.0290    -2.7610     0.3060 hc         1 XNC       0.046200
     59 H38          2.2650    -5.5370    -2.5210 hc         1 XNC       0.046200
     60 H38A         3.8560    -4.8260    -2.8030 hc         1 XNC       0.046200
     61 H38B         3.6380    -6.0140    -1.5170 hc         1 XNC       0.046200
     62 H15          2.9640    -2.5060    -2.5260 hc         1 XNC       0.067700
     63 H15A         1.3930    -3.2700    -2.4160 hc         1 XNC       0.067700
     64 HN11         2.0190    -0.7160    -2.6830 hn         1 XNC       0.499000
     65 HO36         0.7430     1.5080    -4.5130 ho         1 XNC       0.474000
     66 H1           0.0950     3.3540    -3.2910 ha         1 XNC       0.116000
     67 H22         -3.2210     1.5130     2.2200 ha         1 XNC       0.145000
     68 H20         -3.4060    -1.2490    -1.0800 ha         1 XNC       0.119000
     69 H19         -1.0680    -1.7940    -0.7320 ha         1 XNC       0.115000
     70 H25         -5.0860     0.2190    -1.5950 h1         1 XNC       0.042700
     71 H25A        -5.6540    -1.0540    -0.5010 h1         1 XNC       0.042700
     72 H31         -6.3560     2.2930    -1.8810 ha         1 XNC       0.115000
     73 H30         -8.5460     3.4160    -1.7340 ha         1 XNC       0.114500
     74 H29        -10.3440     2.4490    -0.3360 ha         1 XNC       0.113000
     75 H28         -9.9340     0.3580     0.9230 ha         1 XNC       0.114500
     76 H27         -7.7430    -0.7640     0.7730 ha         1 XNC       0.115000
@<TRIPOS>BOND
     1     1     2 2   
     2     2     3 1   
     3     2    10 1   
     4     3     4 ar  
     5     3     9 ar  
     6     4     5 ar  
     7     4    45 1   
     8     5     6 ar  
     9     5    46 1   
    10     6     7 ar  
    11     6    47 1   
    12     7     8 1   
    13     7     9 ar  
    14     8    48 1   
    15     8    49 1   
    16     8    50 1   
    17    10    11 1   
    18    10    14 1   
    19    11    12 ar  
    20    11    26 ar  
    21    12    13 ar  
    22    12    51 1   
    23    13    29 ar  
    24    13    52 1   
    25    14    15 1   
    26    14    30 1   
    27    14    53 1   
    28    15    16 1   
    29    15    24 2   
    30    16    17 2   
    31    16    18 2   
    32    16    19 1   
    33    19    20 1   
    34    19    54 1   
    35    19    55 1   
    36    20    21 1   
    37    20    22 1   
    38    20    23 1   
    39    21    56 1   
    40    21    57 1   
    41    21    58 1   
    42    22    59 1   
    43    22    60 1   
    44    22    61 1   
    45    23    24 1   
    46    23    62 1   
    47    23    63 1   
    48    24    25 1   
    49    25    26 1   
    50    25    64 1   
    51    26    27 ar  
    52    27    28 1   
    53    27    29 ar  
    54    28    65 1   
    55    29    66 1   
    56    30    31 ar  
    57    30    36 ar  
    58    31    32 1   
    59    31    33 ar  
    60    33    34 ar  
    61    33    67 1   
    62    34    35 ar  
    63    34    37 1   
    64    35    36 ar  
    65    35    68 1   
    66    36    69 1   
    67    37    38 1   
    68    38    39 1   
    69    38    70 1   
    70    38    71 1   
    71    39    40 ar  
    72    39    44 ar  
    73    40    41 ar  
    74    40    72 1   
    75    41    42 ar  
    76    41    73 1   
    77    42    43 ar  
    78    42    74 1   
    79    43    44 ar  
    80    43    75 1   
    81    44    76 1   
@<TRIPOS>SUBSTRUCTURE
     1 XNC         1 TEMP              0 ****  ****    0 ROOT
