@<TRIPOS>MOLECULE
XNC
   76    81     1     0     0
SMALL
No Charge or Current Charge


@<TRIPOS>ATOM
      1 O35          2.3760     0.5420     2.8480 o          1 XNC      -0.552100
      2 C16          2.4090     0.9770     1.6980 c          1 XNC       0.526600
      3 C17          3.5040     1.9770     1.2850 ca         1 XNC       0.306500
      4 C43          4.0750     2.8060     2.2780 ca         1 XNC      -0.119000
      5 C42          5.0980     3.7070     1.9390 ca         1 XNC      -0.079000
      6 C41          5.5340     3.7460     0.6070 ca         1 XNC      -0.150000
      7 C40          4.9420     2.8820    -0.3300 ca         1 XNC       0.350300
      8 C44          5.3780     2.8740    -1.7820 c3         1 XNC      -0.141400
      9 N39          3.9660     2.0110    -0.0020 nb         1 XNC      -0.660000
     10 N7           1.4770     0.5270     0.7170 n          1 XNC      -0.224400
     11 C4           1.1470     1.2600    -0.4660 ca         1 XNC      -0.002000
     12 C3           0.9190     2.6510    -0.3900 ca         1 XNC      -0.126000
     13 C2           0.7070     3.4050    -1.5540 ca         1 XNC      -0.077000
     14 C8           0.6480    -0.6660     0.9820 c3         1 XNC       0.266200
     15 C9           1.1540    -1.8490     0.1670 ce         1 XNC      -0.448300
     16 S12          1.1100    -3.3440     1.1560 sy         1 XNC       1.072100
     17 O32         -0.2970    -3.6580     1.4270 o          1 XNC      -0.521000
     18 O33          2.0430    -3.1600     2.2730 o          1 XNC      -0.521000
     19 C13          1.7700    -4.6450     0.0910 c6         1 XNC      -0.316400
     20 C14          2.8280    -4.1590    -0.9210 c6         1 XNC      -0.006000
     21 C37          4.1180    -3.6150    -0.2300 c3         1 XNC      -0.092100
     22 C38          3.2640    -5.3720    -1.7950 c3         1 XNC      -0.092100
     23 C15          2.1690    -3.0840    -1.8200 c6         1 XNC      -0.081200
     24 C10          1.6530    -1.8450    -1.0940 c2         1 XNC       0.297800
     25 N11          1.6500    -0.7040    -1.8940 nu         1 XNC      -0.797000
     26 C5           1.2700     0.6410    -1.7290 ca         1 XNC       0.270000
     27 C6           1.0650     1.4150    -2.9030 ca         1 XNC       0.099100
     28 O36          1.1770     0.8420    -4.1480 oh         1 XNC      -0.555100
     29 C1           0.7700     2.7850    -2.8110 ca         1 XNC      -0.184000
     30 C18         -0.8490    -0.3710     0.8020 ca         1 XNC      -0.172300
     31 C23         -1.5410     0.3530     1.7930 ca         1 XNC       0.224000
     32 F34         -0.8980     0.7760     2.9040 f          1 XNC      -0.174000
     33 C22         -2.9020     0.6530     1.6480 ca         1 XNC      -0.198000
     34 C21         -3.6000     0.2400     0.5080 ca         1 XNC       0.176100
     35 C20         -2.9210    -0.4830    -0.4950 ca         1 XNC      -0.223000
     36 C19         -1.5570    -0.7850    -0.3490 ca         1 XNC      -0.009000
     37 O24         -4.9360     0.5650     0.4170 os         1 XNC      -0.338100
     38 C25         -5.7390     0.1910    -0.7150 c3         1 XNC       0.210900
     39 C26         -7.1550     0.7060    -0.4940 ca         1 XNC      -0.098300
     40 C31         -7.5210     1.9910    -0.9400 ca         1 XNC      -0.083000
     41 C30         -8.8280     2.4670    -0.7360 ca         1 XNC      -0.115000
     42 C29         -9.7770     1.6610    -0.0850 ca         1 XNC      -0.097000
     43 C28         -9.4170     0.3790     0.3640 ca         1 XNC      -0.115000
     44 C27         -8.1090    -0.0970     0.1610 ca         1 XNC      -0.083000
     45 H43          3.7180     2.7550     3.3040 ha         1 XNC       0.142000
     46 H42          5.5410     4.3580     2.6910 ha         1 XNC       0.122000
     47 H41          6.3220     4.4300     0.3040 ha         1 XNC       0.122000
     48 H44          6.0710     2.0470    -1.9750 hc         1 XNC       0.049367
     49 H44A         4.5190     2.7580    -2.4540 hc         1 XNC       0.049367
     50 H44B         5.8850     3.8070    -2.0520 hc         1 XNC       0.049367
     51 H3           0.8800     3.1460     0.5770 ha         1 XNC       0.134000
     52 H2           0.5050     4.4720    -1.4820 ha         1 XNC       0.121000
     53 H8           0.7610    -0.9230     2.0440 h1         1 XNC       0.109700
     54 H13          2.1650    -5.4150     0.7660 h1         1 XNC       0.105700
     55 H13A         0.8950    -5.0510    -0.4320 h1         1 XNC       0.105700
     56 H37          4.5460    -4.3560     0.4560 hc         1 XNC       0.046200
     57 H37A         4.8900    -3.3680    -0.9690 hc         1 XNC       0.046200
     58 H37B         3.9340    -2.7010     0.3460 hc         1 XNC       0.046200
     59 H38          2.4090    -5.8180    -2.3180 hc         1 XNC       0.046200
     60 H38A         3.9970    -5.0790    -2.5570 hc         1 XNC       0.046200
     61 H38B         3.7210    -6.1610    -1.1840 hc         1 XNC       0.046200
     62 H15          2.8950    -2.7810    -2.5880 hc         1 XNC       0.067700
     63 H15A         1.3300    -3.5300    -2.3710 hc         1 XNC       0.067700
     64 HN11         1.8340    -0.8940    -2.8780 hn         1 XNC       0.499000
     65 HO36         1.0020     1.5290    -4.8270 ho         1 XNC       0.474000
     66 H1           0.6140     3.3790    -3.7080 ha         1 XNC       0.116000
     67 H22         -3.4160     1.2130     2.4230 ha         1 XNC       0.145000
     68 H20         -3.4310    -0.8170    -1.3930 ha         1 XNC       0.119000
     69 H19         -1.0580    -1.3370    -1.1400 ha         1 XNC       0.115000
     70 H25         -5.3320     0.6240    -1.6380 h1         1 XNC       0.042700
     71 H25A        -5.7610    -0.9010    -0.8300 h1         1 XNC       0.042700
     72 H31         -6.7920     2.6230    -1.4440 ha         1 XNC       0.115000
     73 H30         -9.1060     3.4600    -1.0830 ha         1 XNC       0.114500
     74 H29        -10.7890     2.0290     0.0730 ha         1 XNC       0.113000
     75 H28        -10.1500    -0.2460     0.8710 ha         1 XNC       0.114500
     76 H27         -7.8380    -1.0900     0.5140 ha         1 XNC       0.115000
@<TRIPOS>BOND
     1     1     2 2   
     2     2     3 1   
     3     2    10 1   
     4     3     4 ar  
     5     3     9 ar  
     6     4     5 ar  
     7     4    45 1   
     8     5     6 ar  
     9     5    46 1   
    10     6     7 ar  
    11     6    47 1   
    12     7     8 1   
    13     7     9 ar  
    14     8    48 1   
    15     8    49 1   
    16     8    50 1   
    17    10    11 1   
    18    10    14 1   
    19    11    12 ar  
    20    11    26 ar  
    21    12    13 ar  
    22    12    51 1   
    23    13    29 ar  
    24    13    52 1   
    25    14    15 1   
    26    14    30 1   
    27    14    53 1   
    28    15    16 1   
    29    15    24 2   
    30    16    17 2   
    31    16    18 2   
    32    16    19 1   
    33    19    20 1   
    34    19    54 1   
    35    19    55 1   
    36    20    21 1   
    37    20    22 1   
    38    20    23 1   
    39    21    56 1   
    40    21    57 1   
    41    21    58 1   
    42    22    59 1   
    43    22    60 1   
    44    22    61 1   
    45    23    24 1   
    46    23    62 1   
    47    23    63 1   
    48    24    25 1   
    49    25    26 1   
    50    25    64 1   
    51    26    27 ar  
    52    27    28 1   
    53    27    29 ar  
    54    28    65 1   
    55    29    66 1   
    56    30    31 ar  
    57    30    36 ar  
    58    31    32 1   
    59    31    33 ar  
    60    33    34 ar  
    61    33    67 1   
    62    34    35 ar  
    63    34    37 1   
    64    35    36 ar  
    65    35    68 1   
    66    36    69 1   
    67    37    38 1   
    68    38    39 1   
    69    38    70 1   
    70    38    71 1   
    71    39    40 ar  
    72    39    44 ar  
    73    40    41 ar  
    74    40    72 1   
    75    41    42 ar  
    76    41    73 1   
    77    42    43 ar  
    78    42    74 1   
    79    43    44 ar  
    80    43    75 1   
    81    44    76 1   
@<TRIPOS>SUBSTRUCTURE
     1 XNC         1 TEMP              0 ****  ****    0 ROOT
