@<TRIPOS>MOLECULE
XND
   52    55     1     0     0
SMALL
No Charge or Current Charge


@<TRIPOS>ATOM
      1 Cl29        -4.7080     1.7570     2.7420 cl         1 XND      -0.198000
      2 C22         -3.3680     1.3540     1.6770 ca         1 XND       0.127000
      3 C21         -3.6180     0.9280     0.3670 ca         1 XND      -0.105000
      4 C20         -2.5500     0.6030    -0.4860 ca         1 XND       0.141000
      5 Cl28        -2.9350     0.0650    -2.1230 cl         1 XND      -0.188000
      6 C23         -2.0490     1.4580     2.1410 ca         1 XND      -0.108000
      7 C24         -0.9770     1.1350     1.2920 ca         1 XND      -0.077000
      8 C16         -1.2110     0.7030    -0.0350 ca         1 XND      -0.065300
      9 C11         -0.0500     0.3260    -0.9740 c3         1 XND       0.225200
     10 C5           1.3240     0.8250    -0.5270 ce         1 XND      -0.344400
     11 C6           1.7830     2.0810    -1.1870 c          1 XND       0.596300
     12 O25          1.3580     2.4790    -2.2640 o          1 XND      -0.544100
     13 C1           2.7280     2.9350    -0.3530 c6         1 XND      -0.172400
     14 N10          0.0180    -1.1240    -1.2300 n          1 XND      -0.241400
     15 C17          0.4320    -1.5840    -2.5060 c          1 XND       0.617100
     16 C19          0.7220    -3.0770    -2.6950 c3         1 XND      -0.175100
     17 O18          0.5860    -0.8200    -3.4520 o          1 XND      -0.578100
     18 C9          -0.1560    -1.9660    -0.0890 ca         1 XND      -0.038000
     19 C15         -1.1080    -3.0060    -0.1230 ca         1 XND      -0.113000
     20 C14         -1.2180    -3.9080     0.9460 ca         1 XND      -0.082000
     21 C13         -0.3440    -3.8090     2.0390 ca         1 XND      -0.179000
     22 C12          0.6510    -2.8180     2.0540 ca         1 XND       0.101100
     23 O30          1.5300    -2.7730     3.1110 oh         1 XND      -0.548100
     24 C8           0.7630    -1.8940     0.9810 ca         1 XND       0.248000
     25 N7           1.8320    -0.9760     1.0150 nu         1 XND      -0.819000
     26 C4           2.1620     0.2030     0.3450 c2         1 XND       0.222800
     27 C3           3.4910     0.8190     0.8050 c6         1 XND      -0.059200
     28 C2           3.9670     2.0860     0.0280 c6         1 XND      -0.032000
     29 C27          4.7590     1.6680    -1.2510 c3         1 XND      -0.089100
     30 C26          4.9360     2.9300     0.9090 c3         1 XND      -0.089100
     31 H21         -4.6410     0.8460     0.0100 ha         1 XND       0.142000
     32 H23         -1.8570     1.7870     3.1590 ha         1 XND       0.130000
     33 H24          0.0330     1.2180     1.6840 ha         1 XND       0.124000
     34 H11         -0.2970     0.8090    -1.9290 h1         1 XND       0.122700
     35 H1           2.9810     3.8650    -0.8800 hc         1 XND       0.069700
     36 H1A          2.2080     3.1700     0.5850 hc         1 XND       0.069700
     37 H19         -0.2220    -3.6290    -2.6530 hc         1 XND       0.062033
     38 H19A         1.2330    -3.2830    -3.6420 hc         1 XND       0.062033
     39 H19B         1.2790    -3.4640    -1.8350 hc         1 XND       0.062033
     40 H15         -1.7900    -3.0930    -0.9650 ha         1 XND       0.137000
     41 H14         -1.9760    -4.6890     0.9220 ha         1 XND       0.123000
     42 H13         -0.4320    -4.5190     2.8590 ha         1 XND       0.119000
     43 HO30         1.2950    -3.4840     3.7450 ho         1 XND       0.475000
     44 HN7          2.4490    -1.1910     1.8020 hn         1 XND       0.501000
     45 H3           3.3690     1.0830     1.8650 hc         1 XND       0.058200
     46 H3A          4.2790     0.0540     0.7860 hc         1 XND       0.058200
     47 H27          5.0480     2.5430    -1.8470 hc         1 XND       0.041200
     48 H27A         5.6790     1.1290    -0.9940 hc         1 XND       0.041200
     49 H27B         4.1720     1.0070    -1.9000 hc         1 XND       0.041200
     50 H26          4.4430     3.2830     1.8230 hc         1 XND       0.041200
     51 H26A         5.8130     2.3440     1.2150 hc         1 XND       0.041200
     52 H26B         5.3000     3.8140     0.3720 hc         1 XND       0.041200
@<TRIPOS>BOND
     1     1     2 1   
     2     2     3 ar  
     3     2     6 ar  
     4     3     4 ar  
     5     3    31 1   
     6     4     5 1   
     7     4     8 ar  
     8     6     7 ar  
     9     6    32 1   
    10     7     8 ar  
    11     7    33 1   
    12     8     9 1   
    13     9    10 1   
    14     9    14 1   
    15     9    34 1   
    16    10    11 1   
    17    10    26 2   
    18    11    12 2   
    19    11    13 1   
    20    13    28 1   
    21    13    35 1   
    22    13    36 1   
    23    14    15 1   
    24    14    18 1   
    25    15    16 1   
    26    15    17 2   
    27    16    37 1   
    28    16    38 1   
    29    16    39 1   
    30    18    19 ar  
    31    18    24 ar  
    32    19    20 ar  
    33    19    40 1   
    34    20    21 ar  
    35    20    41 1   
    36    21    22 ar  
    37    21    42 1   
    38    22    23 1   
    39    22    24 ar  
    40    23    43 1   
    41    24    25 1   
    42    25    26 1   
    43    25    44 1   
    44    26    27 1   
    45    27    28 1   
    46    27    45 1   
    47    27    46 1   
    48    28    29 1   
    49    28    30 1   
    50    29    47 1   
    51    29    48 1   
    52    29    49 1   
    53    30    50 1   
    54    30    51 1   
    55    30    52 1   
@<TRIPOS>SUBSTRUCTURE
     1 XND         1 TEMP              0 ****  ****    0 ROOT
