@<TRIPOS>MOLECULE
XND
   52    55     1     0     0
SMALL
bcc


@<TRIPOS>ATOM
      1 CL29        -4.9940     1.2140     2.3930 cl         1 XND      -0.106400
      2 C22         -3.5590     0.9930     1.4540 ca         1 XND       0.035400
      3 C21         -3.6740     0.6090     0.1280 ca         1 XND      -0.123000
      4 C20         -2.5170     0.4360    -0.6130 ca         1 XND       0.049400
      5 CL28        -2.6930    -0.0470    -2.2680 cl         1 XND      -0.096400
      6 C23         -2.3190     1.2030     2.0310 ca         1 XND      -0.126000
      7 C24         -1.1830     1.0190     1.2600 ca         1 XND      -0.095000
      8 C16         -1.2470     0.6300    -0.0720 ca         1 XND      -0.065300
      9 C11         -0.0020     0.4060    -0.9010 c3         1 XND       0.225200
     10 C5           1.2640     0.9680    -0.3150 ce         1 XND      -0.344400
     11 C6           1.5440     2.3520    -0.6450 c          1 XND       0.596300
     12 O25          0.7370     3.0270    -1.2760 o          1 XND      -0.544100
     13 C1           2.8340     2.9660    -0.1640 c6         1 XND      -0.172400
     14 N10          0.1430    -1.0220    -1.1830 n          1 XND      -0.401000
     15 C17          0.7270    -1.4180    -2.3500 c          1 XND       0.684100
     16 C19          0.9790    -2.8950    -2.5090 c3         1 XND      -0.175100
     17 O18          1.0240    -0.6130    -3.2160 o          1 XND      -0.578100
     18 C9          -0.0600    -1.8930    -0.0940 ca         1 XND       0.054600
     19 C15         -1.1640    -2.7320    -0.0320 ca         1 XND      -0.131000
     20 C14         -1.3250    -3.5660     1.0600 ca         1 XND      -0.100000
     21 C13         -0.4060    -3.5420     2.1010 ca         1 XND      -0.197000
     22 C12          0.6770    -2.6770     2.0590 ca         1 XND       0.101100
     23 O30          1.6000    -2.5960     3.0360 oh         1 XND      -0.509100
     24 C8           0.8560    -1.8370     0.9490 ca         1 XND       0.109600
     25 N7           1.9800    -1.0100     0.9150 nu         1 XND      -0.625400
     26 C4           2.1500     0.2470     0.4350 c2         1 XND       0.222800
     27 C3           3.4720     0.8290     0.8560 c6         1 XND      -0.059200
     28 C2           3.9710     1.9580    -0.0400 c6         1 XND      -0.032000
     29 C27          4.3770     1.4250    -1.4170 c3         1 XND      -0.089100
     30 C26          5.1820     2.6190     0.6120 c3         1 XND      -0.089100
     31 H21         -4.6440     0.4490    -0.3210 ha         1 XND       0.160000
     32 H23         -2.2330     1.5030     3.0660 ha         1 XND       0.148000
     33 H24         -0.2150     1.1880     1.7130 ha         1 XND       0.142000
     34 H11         -0.1580     0.9010    -1.8600 h1         1 XND       0.122700
     35 H1           3.1030     3.7880    -0.8320 hc         1 XND       0.069700
     36 H1A          2.6380     3.4140     0.8190 hc         1 XND       0.069700
     37 H19          0.0410    -3.4470    -2.5870 hc         1 XND       0.062033
     38 H19A         1.5530    -3.0640    -3.4160 hc         1 XND       0.062033
     39 H19B         1.5260    -3.3080    -1.6610 hc         1 XND       0.062033
     40 H15         -1.8790    -2.7270    -0.8430 ha         1 XND       0.155000
     41 H14         -2.1730    -4.2340     1.1130 ha         1 XND       0.141000
     42 H13         -0.5390    -4.1920     2.9580 ha         1 XND       0.137000
     43 HO30         1.4240    -3.2460     3.7260 ho         1 XND       0.436000
     44 HN7          2.7530    -1.3470     1.4700 hn         1 XND       0.445800
     45 H3           3.3640     1.1960     1.8840 hc         1 XND       0.058200
     46 H3A          4.2180     0.0290     0.8970 hc         1 XND       0.058200
     47 H27          4.7460     2.2390    -2.0450 hc         1 XND       0.041200
     48 H27A         5.1790     0.6910    -1.3210 hc         1 XND       0.041200
     49 H27B         3.5520     0.9470    -1.9460 hc         1 XND       0.041200
     50 H26          4.9400     3.0060     1.6030 hc         1 XND       0.041200
     51 H26A         6.0060     1.9100     0.7190 hc         1 XND       0.041200
     52 H26B         5.5400     3.4530     0.0050 hc         1 XND       0.041200
@<TRIPOS>BOND
     1     1     2 1   
     2     2     3 ar  
     3     2     6 ar  
     4     3     4 ar  
     5     3    31 1   
     6     4     5 1   
     7     4     8 ar  
     8     6     7 ar  
     9     6    32 1   
    10     7     8 ar  
    11     7    33 1   
    12     8     9 1   
    13     9    10 1   
    14     9    14 1   
    15     9    34 1   
    16    10    11 1   
    17    10    26 2   
    18    11    12 2   
    19    11    13 1   
    20    13    28 1   
    21    13    35 1   
    22    13    36 1   
    23    14    15 1   
    24    14    18 1   
    25    15    16 1   
    26    15    17 2   
    27    16    37 1   
    28    16    38 1   
    29    16    39 1   
    30    18    19 ar  
    31    18    24 ar  
    32    19    20 ar  
    33    19    40 1   
    34    20    21 ar  
    35    20    41 1   
    36    21    22 ar  
    37    21    42 1   
    38    22    23 1   
    39    22    24 ar  
    40    23    43 1   
    41    24    25 1   
    42    25    26 1   
    43    25    44 1   
    44    26    27 1   
    45    27    28 1   
    46    27    45 1   
    47    27    46 1   
    48    28    29 1   
    49    28    30 1   
    50    29    47 1   
    51    29    48 1   
    52    29    49 1   
    53    30    50 1   
    54    30    51 1   
    55    30    52 1   
@<TRIPOS>SUBSTRUCTURE
     1 XND         1 TEMP              0 ****  ****    0 ROOT
