@<TRIPOS>MOLECULE
XNE
   67    71     1     0     0
SMALL
No Charge or Current Charge


@<TRIPOS>ATOM
      1 O19        -22.0350    -8.4540    10.6460 o          1 XNE      -0.700500
      2 C15        -22.6400   -12.4620    11.9120 ca         1 XNE      -0.039200
      3 C13        -26.7460   -13.9540    16.0620 ca         1 XNE      -0.059000
      4 C12        -27.9350   -14.4690    16.6080 ca         1 XNE      -0.122000
      5 C17        -22.1960   -10.7650    10.4160 cc         1 XNE      -0.057300
      6 C10        -30.4750   -14.5820    16.7400 c3         1 XNE       0.196100
      7 C01        -22.0310   -12.9230    15.4650 c3         1 XNE      -0.088100
      8 C02        -23.1080   -12.5140    14.4440 c3         1 XNE       0.238600
      9 C06        -26.7900   -12.9730    15.0430 ca         1 XNE      -0.130600
     10 C07        -28.0490   -12.5250    14.5880 ca         1 XNE      -0.059000
     11 C08        -29.2350   -13.0420    15.1370 ca         1 XNE      -0.122000
     12 C09        -29.1870   -14.0170    16.1510 ca         1 XNE      -0.069300
     13 C14        -22.9080   -13.1960    13.0850 ca         1 XNE      -0.138300
     14 C18        -22.0280    -9.3850     9.8520 c          1 XNE       0.725200
     15 C21        -22.1880   -12.0010     9.7450 cd         1 XNE      -0.142400
     16 C22        -21.7030   -12.2940     8.3750 ca         1 XNE       0.013200
     17 C23        -20.5850   -11.6340     7.8290 ca         1 XNE      -0.046000
     18 C24        -20.1570   -11.9740     6.5350 ca         1 XNE      -0.141000
     19 C25        -20.8480   -12.9650     5.8120 ca         1 XNE       0.302300
     20 C26        -20.3920   -13.3540     4.3940 c3         1 XNE       0.126500
     21 C28        -18.7120   -15.0610     5.1200 c6         1 XNE       0.136300
     22 C29        -17.2550   -15.6080     4.9480 c6         1 XNE       0.155100
     23 C31        -17.0790   -14.6020     2.7640 c6         1 XNE       0.155100
     24 C32        -18.5370   -14.0420     2.8750 c6         1 XNE       0.136300
     25 C34        -22.3280   -13.2790     7.5760 ca         1 XNE       0.318900
     26 C35        -22.4570   -13.0690    10.6980 ca         1 XNE      -0.085800
     27 C36        -22.4980   -14.4680    10.5650 ca         1 XNE      -0.063000
     28 C37        -22.7730   -15.2330    11.7150 ca         1 XNE      -0.165000
     29 C38        -22.9820   -14.6040    12.9630 ca         1 XNE      -0.098000
     30 N11        -30.9800   -13.7480    17.8470 n8         1 XNE      -0.998200
     31 N16        -22.4910   -11.0960    11.7560 na         1 XNE      -0.193700
     32 N27        -18.9880   -13.8450     4.2880 n3         1 XNE      -0.716600
     33 N33        -21.9250   -13.6110     6.3240 nb         1 XNE      -0.696000
     34 O03        -24.3750   -12.9170    14.9910 os         1 XNE      -0.456100
     35 O05        -25.5360   -11.5590    13.5540 o          1 XNE      -0.465000
     36 O20        -21.9600    -9.2070     8.6450 o          1 XNE      -0.700500
     37 O30        -16.4700   -14.7680     4.0680 os         1 XNE      -0.443000
     38 H131       -25.7950   -14.3250    16.4370 ha         1 XNE       0.134000
     39 H121       -27.8810   -15.2230    17.3900 ha         1 XNE       0.118500
     40 H101       -31.2470   -14.6400    15.9590 h1         1 XNE       0.033200
     41 H102       -30.2950   -15.5990    17.1160 h1         1 XNE       0.033200
     42 H013       -22.1820   -12.3940    16.4130 hc         1 XNE       0.043700
     43 H012       -22.0600   -14.0010    15.6620 hc         1 XNE       0.043700
     44 H011       -21.0340   -12.6690    15.0880 hc         1 XNE       0.043700
     45 H021       -23.0670   -11.4220    14.3360 h1         1 XNE       0.062700
     46 H071       -28.1140   -11.7710    13.8050 ha         1 XNE       0.134000
     47 H081       -30.1960   -12.6830    14.7750 ha         1 XNE       0.118500
     48 H231       -20.0350   -10.8950     8.4050 ha         1 XNE       0.133000
     49 H241       -19.2910   -11.4870     6.0960 ha         1 XNE       0.122000
     50 H262       -20.5150   -12.4660     3.7600 h1         1 XNE       0.042200
     51 H261       -21.0780   -14.1160     3.9980 h1         1 XNE       0.042200
     52 H282       -19.4140   -15.8660     4.8570 h1         1 XNE       0.038950
     53 H281       -18.8750   -14.8380     6.1840 h1         1 XNE       0.038950
     54 H292       -17.2880   -16.6270     4.5340 h1         1 XNE       0.039200
     55 H291       -16.7580   -15.6590     5.9270 h1         1 XNE       0.039200
     56 H311       -17.0930   -15.5730     2.2490 h1         1 XNE       0.039200
     57 H312       -16.4610   -13.9140     2.1690 h1         1 XNE       0.039200
     58 H321       -18.5910   -13.0900     2.3260 h1         1 XNE       0.038950
     59 H322       -19.2130   -14.7400     2.3570 h1         1 XNE       0.038950
     60 H341       -23.2120   -13.8040     7.9370 h4         1 XNE       0.014100
     61 H361       -22.3130   -14.9640     9.6170 ha         1 XNE       0.107000
     62 H371       -22.8180   -16.3170    11.6440 ha         1 XNE       0.093000
     63 H381       -23.1940   -15.2150    13.8370 ha         1 XNE       0.096000
     64 H111       -31.7900   -14.2150    18.2710 hn         1 XNE       0.395000
     65 H112       -30.2790   -13.7430    18.5970 hn         1 XNE       0.395000
     66 H161       -22.6020   -10.4080    12.4920 hn         1 XNE       0.370000
     67 C04        -25.5240   -12.4060    14.4390 c          1 XNE       0.605700
@<TRIPOS>BOND
     1     1    14 1   
     2     2    13 ar  
     3     2    26 ar  
     4     2    31 1   
     5     3     4 ar  
     6     3     9 ar  
     7     3    38 1   
     8     4    12 ar  
     9     4    39 1   
    10     5    14 1   
    11     5    15 2   
    12     5    31 1   
    13     6    12 1   
    14     6    30 1   
    15     6    40 1   
    16     6    41 1   
    17     7     8 1   
    18     7    42 1   
    19     7    43 1   
    20     7    44 1   
    21     8    13 1   
    22     8    34 1   
    23     8    45 1   
    24     9    10 ar  
    25     9    67 1   
    26    10    11 ar  
    27    10    46 1   
    28    11    12 ar  
    29    11    47 1   
    30    13    29 ar  
    31    14    36 1   
    32    15    16 1   
    33    15    26 1   
    34    16    17 ar  
    35    16    25 ar  
    36    17    18 ar  
    37    17    48 1   
    38    18    19 ar  
    39    18    49 1   
    40    19    20 1   
    41    19    33 ar  
    42    20    32 1   
    43    20    50 1   
    44    20    51 1   
    45    21    22 1   
    46    21    32 1   
    47    21    52 1   
    48    21    53 1   
    49    22    37 1   
    50    22    54 1   
    51    22    55 1   
    52    23    24 1   
    53    23    37 1   
    54    23    56 1   
    55    23    57 1   
    56    24    32 1   
    57    24    58 1   
    58    24    59 1   
    59    25    33 ar  
    60    25    60 1   
    61    26    27 ar  
    62    27    28 ar  
    63    27    61 1   
    64    28    29 ar  
    65    28    62 1   
    66    29    63 1   
    67    30    64 1   
    68    30    65 1   
    69    31    66 1   
    70    34    67 1   
    71    35    67 2   
@<TRIPOS>SUBSTRUCTURE
     1 XNE         1 TEMP              0 ****  ****    0 ROOT
