@<TRIPOS>MOLECULE
XNE
   67    71     1     0     0
SMALL
abcg2


@<TRIPOS>ATOM
      1 O19        -21.7880    -8.4850    10.9130 o          1 XNE      -0.700500
      2 C15        -22.5880   -12.3240    11.9000 ca         1 XNE      -0.039200
      3 C13        -26.5870   -14.0910    16.0480 ca         1 XNE      -0.059000
      4 C12        -27.7050   -14.6750    16.6180 ca         1 XNE      -0.122000
      5 C17        -21.9570   -10.7560    10.4270 cc         1 XNE      -0.057300
      6 C10        -30.1880   -14.9280    16.8970 c3         1 XNE       0.196100
      7 C01        -22.0780   -12.6340    15.3370 c3         1 XNE      -0.088100
      8 C02        -23.2020   -12.3400    14.3630 c3         1 XNE       0.238600
      9 C06        -26.7310   -13.0510    15.1300 ca         1 XNE      -0.130600
     10 C07        -28.0130   -12.6140    14.8030 ca         1 XNE      -0.059000
     11 C08        -29.1270   -13.1990    15.3800 ca         1 XNE      -0.122000
     12 C09        -28.9890   -14.2440    16.2910 ca         1 XNE      -0.069300
     13 C14        -22.9930   -13.0270    13.0390 ca         1 XNE      -0.138300
     14 C18        -21.7120    -9.3280     9.9980 c          1 XNE       0.725200
     15 C21        -21.9190   -11.9510     9.7430 cd         1 XNE      -0.142400
     16 C22        -21.4940   -12.2130     8.3670 ca         1 XNE       0.013200
     17 C23        -20.2550   -11.8050     7.8730 ca         1 XNE      -0.046000
     18 C24        -19.8860   -12.1460     6.5880 ca         1 XNE      -0.141000
     19 C25        -20.7650   -12.8920     5.8040 ca         1 XNE       0.302300
     20 C26        -20.3950   -13.2780     4.3970 c3         1 XNE       0.126500
     21 C28        -19.0100   -15.1860     4.9640 c6         1 XNE       0.136300
     22 C29        -17.5350   -15.5490     5.1320 c6         1 XNE       0.155100
     23 C31        -17.4610   -14.9840     2.8680 c6         1 XNE       0.155100
     24 C32        -18.5870   -13.9520     2.9640 c6         1 XNE       0.136300
     25 C34        -22.2950   -12.9490     7.5000 ca         1 XNE       0.318900
     26 C35        -22.3230   -12.9670    10.6700 ca         1 XNE      -0.085800
     27 C36        -22.4670   -14.3550    10.5780 ca         1 XNE      -0.063000
     28 C37        -22.8780   -15.0540    11.6950 ca         1 XNE      -0.165000
     29 C38        -23.1350   -14.3980    12.9070 ca         1 XNE      -0.098000
     30 N11        -31.3430   -14.0560    16.9770 n8         1 XNE      -0.998200
     31 N16        -22.3550   -10.9980    11.7130 na         1 XNE      -0.193700
     32 N27        -19.0880   -13.8870     4.3290 n3         1 XNE      -0.716600
     33 N33        -21.9480   -13.2820     6.2610 nb         1 XNE      -0.696000
     34 O03        -24.4120   -12.8080    14.9800 os         1 XNE      -0.456100
     35 O05        -25.6650   -11.5880    13.5890 o          1 XNE      -0.465000
     36 O20        -21.4760    -9.1370     8.7940 o          1 XNE      -0.700500
     37 O30        -16.7400   -15.0530     4.0730 os         1 XNE      -0.443000
     38 H131       -25.6060   -14.4520    16.3250 ha         1 XNE       0.134000
     39 H121       -27.5760   -15.4790    17.3330 ha         1 XNE       0.118500
     40 H101       -30.4510   -15.7750    16.2560 h1         1 XNE       0.033200
     41 H102       -29.8890   -15.3670    17.8580 h1         1 XNE       0.033200
     42 H013       -22.2350   -12.1230    16.2870 hc         1 XNE       0.043700
     43 H012       -21.9840   -13.7040    15.5240 hc         1 XNE       0.043700
     44 H011       -21.1370   -12.2820    14.9170 hc         1 XNE       0.043700
     45 H021       -23.2770   -11.2580    14.2240 h1         1 XNE       0.062700
     46 H071       -28.1430   -11.8060    14.0940 ha         1 XNE       0.134000
     47 H081       -30.1150   -12.8420    15.1240 ha         1 XNE       0.118500
     48 H231       -19.5820   -11.2390     8.5030 ha         1 XNE       0.133000
     49 H241       -18.9240   -11.8520     6.1910 ha         1 XNE       0.122000
     50 H262       -20.3730   -12.3750     3.7770 h1         1 XNE       0.042200
     51 H261       -21.1890   -13.9200     3.9830 h1         1 XNE       0.042200
     52 H282       -19.5520   -15.9590     4.3950 h1         1 XNE       0.038950
     53 H281       -19.4740   -15.1480     5.9510 h1         1 XNE       0.038950
     54 H292       -17.4330   -16.6380     5.2230 h1         1 XNE       0.039200
     55 H291       -17.1460   -15.1010     6.0500 h1         1 XNE       0.039200
     56 H311       -17.8720   -15.9670     2.6030 h1         1 XNE       0.039200
     57 H312       -16.7620   -14.7090     2.0770 h1         1 XNE       0.039200
     58 H321       -18.2350   -12.9580     2.6740 h1         1 XNE       0.038950
     59 H322       -19.3720   -14.2360     2.2440 h1         1 XNE       0.038950
     60 H341       -23.2740   -13.2860     7.8270 h4         1 XNE       0.014100
     61 H361       -22.2600   -14.8740     9.6500 ha         1 XNE       0.107000
     62 H371       -22.9990   -16.1280    11.6420 ha         1 XNE       0.093000
     63 H381       -23.4470   -14.9870    13.7610 ha         1 XNE       0.096000
     64 H111       -32.1550   -14.5980    17.2440 hn         1 XNE       0.395000
     65 H112       -31.2060   -13.3730    17.7120 hn         1 XNE       0.395000
     66 H161       -22.4660   -10.2520    12.3810 hn         1 XNE       0.370000
     67 C04        -25.5720   -12.4000    14.4770 c          1 XNE       0.605700
@<TRIPOS>BOND
     1     1    14 1   
     2     2    13 ar  
     3     2    26 ar  
     4     2    31 1   
     5     3     4 ar  
     6     3     9 ar  
     7     3    38 1   
     8     4    12 ar  
     9     4    39 1   
    10     5    14 1   
    11     5    15 2   
    12     5    31 1   
    13     6    12 1   
    14     6    30 1   
    15     6    40 1   
    16     6    41 1   
    17     7     8 1   
    18     7    42 1   
    19     7    43 1   
    20     7    44 1   
    21     8    13 1   
    22     8    34 1   
    23     8    45 1   
    24     9    10 ar  
    25     9    67 1   
    26    10    11 ar  
    27    10    46 1   
    28    11    12 ar  
    29    11    47 1   
    30    13    29 ar  
    31    14    36 1   
    32    15    16 1   
    33    15    26 1   
    34    16    17 ar  
    35    16    25 ar  
    36    17    18 ar  
    37    17    48 1   
    38    18    19 ar  
    39    18    49 1   
    40    19    20 1   
    41    19    33 ar  
    42    20    32 1   
    43    20    50 1   
    44    20    51 1   
    45    21    22 1   
    46    21    32 1   
    47    21    52 1   
    48    21    53 1   
    49    22    37 1   
    50    22    54 1   
    51    22    55 1   
    52    23    24 1   
    53    23    37 1   
    54    23    56 1   
    55    23    57 1   
    56    24    32 1   
    57    24    58 1   
    58    24    59 1   
    59    25    33 ar  
    60    25    60 1   
    61    26    27 ar  
    62    27    28 ar  
    63    27    61 1   
    64    28    29 ar  
    65    28    62 1   
    66    29    63 1   
    67    30    64 1   
    68    30    65 1   
    69    31    66 1   
    70    34    67 1   
    71    35    67 2   
@<TRIPOS>SUBSTRUCTURE
     1 XNE         1 TEMP              0 ****  ****    0 ROOT
