@<TRIPOS>MOLECULE
XNG
   44    43     1     0     0
SMALL
bcc


@<TRIPOS>ATOM
      1 C1          12.4010    35.4310    26.8590 c3         1 XNG       0.111000
      2 C10          9.5740    35.3620    23.5160 c3         1 XNG      -0.068400
      3 C11          9.3790    36.8730    23.5890 c3         1 XNG      -0.072400
      4 C12          9.9200    37.6330    22.3820 c3         1 XNG      -0.080400
      5 C13          9.5140    39.1030    22.3870 c3         1 XNG      -0.072400
      6 C14         10.1140    39.9230    21.2490 c3         1 XNG      -0.072400
      7 C15          9.6800    39.4640    19.8600 c3         1 XNG      -0.074400
      8 C16         10.0900    40.4140    18.7380 c3         1 XNG      -0.073400
      9 C17         11.5970    40.5710    18.5780 c3         1 XNG      -0.088100
     10 C2          11.8170    34.8110    28.1220 c3         1 XNG      -0.068400
     11 C3          11.8060    33.2820    28.1570 c3         1 XNG      -0.211400
     12 C4          10.6230    32.5540    27.4860 c          1 XNG       0.930600
     13 C8          11.9480    35.4390    24.4560 c          1 XNG       0.658100
     14 C9          11.0290    34.9090    23.3700 c3         1 XNG      -0.152400
     15 N7          11.6220    35.0690    25.6970 ns         1 XNG      -0.572900
     16 O18         12.9170    36.1530    24.2030 o          1 XNG      -0.683100
     17 O5           9.8970    33.2070    26.6910 o          1 XNG      -0.837800
     18 O6          10.4790    31.3560    27.7760 o          1 XNG      -0.837800
     19 H1          13.4390    35.0990    26.7420 h1         1 XNG       0.020200
     20 H2          12.4340    36.5190    26.9710 h1         1 XNG       0.020200
     21 H3           9.1310    34.8980    24.4000 hc         1 XNG       0.050200
     22 H4           9.0130    34.9700    22.6630 hc         1 XNG       0.050200
     23 H5           9.8390    37.2640    24.5030 hc         1 XNG       0.037200
     24 H6           8.3080    37.0750    23.6870 hc         1 XNG       0.037200
     25 H7           9.5630    37.1490    21.4670 hc         1 XNG       0.042200
     26 H8          11.0120    37.5640    22.3580 hc         1 XNG       0.042200
     27 H9           9.8110    39.5500    23.3410 hc         1 XNG       0.032700
     28 H10          8.4210    39.1750    22.3470 hc         1 XNG       0.032700
     29 H11         11.2060    39.8970    21.3290 hc         1 XNG       0.034200
     30 H12          9.8260    40.9720    21.3790 hc         1 XNG       0.034200
     31 H13          8.5910    39.3530    19.8490 hc         1 XNG       0.038700
     32 H14         10.0870    38.4700    19.6510 hc         1 XNG       0.038700
     33 H15          9.6370    41.3960    18.9140 hc         1 XNG       0.029200
     34 H16          9.6670    40.0520    17.7970 hc         1 XNG       0.029200
     35 H17         11.8380    41.1990    17.7200 hc         1 XNG       0.029700
     36 H18         12.0550    41.0300    19.4540 hc         1 XNG       0.029700
     37 H19         12.0780    39.6030    18.4240 hc         1 XNG       0.029700
     38 H20         12.4260    35.1740    28.9530 hc         1 XNG       0.025700
     39 H21         10.8110    35.2030    28.2950 hc         1 XNG       0.025700
     40 H22         11.8430    32.9460    29.1970 hc         1 XNG       0.026700
     41 H23         12.7320    32.9030    27.7070 hc         1 XNG       0.026700
     42 H24         11.0610    33.8150    23.3840 hc         1 XNG       0.054200
     43 H25         11.4310    35.2210    22.4060 hc         1 XNG       0.054200
     44 H26         10.8560    34.4060    25.8810 hn         1 XNG       0.394500
@<TRIPOS>BOND
     1     1    10 1   
     2     1    15 1   
     3     1    19 1   
     4     1    20 1   
     5     2     3 1   
     6     2    14 1   
     7     2    21 1   
     8     2    22 1   
     9     3     4 1   
    10     3    23 1   
    11     3    24 1   
    12     4     5 1   
    13     4    25 1   
    14     4    26 1   
    15     5     6 1   
    16     5    27 1   
    17     5    28 1   
    18     6     7 1   
    19     6    29 1   
    20     6    30 1   
    21     7     8 1   
    22     7    31 1   
    23     7    32 1   
    24     8     9 1   
    25     8    33 1   
    26     8    34 1   
    27     9    35 1   
    28     9    36 1   
    29     9    37 1   
    30    10    11 1   
    31    10    38 1   
    32    10    39 1   
    33    11    12 1   
    34    11    40 1   
    35    11    41 1   
    36    12    17 1   
    37    12    18 1   
    38    13    14 1   
    39    13    15 1   
    40    13    16 2   
    41    14    42 1   
    42    14    43 1   
    43    15    44 1   
@<TRIPOS>SUBSTRUCTURE
     1 XNG         1 TEMP              0 ****  ****    0 ROOT
