@<TRIPOS>MOLECULE
XNG
   44    43     1     0     0
SMALL
No Charge or Current Charge


@<TRIPOS>ATOM
      1 C1          12.7590    34.9940    27.1750 c3         1 XNG       0.111000
      2 C10          9.7740    35.4850    23.5720 c3         1 XNG      -0.068400
      3 C11          9.3930    36.9860    23.5520 c3         1 XNG      -0.072400
      4 C12          9.8940    37.7580    22.3080 c3         1 XNG      -0.080400
      5 C13          9.4060    39.2250    22.2750 c3         1 XNG      -0.072400
      6 C14          9.9580    40.0570    21.0930 c3         1 XNG      -0.072400
      7 C15          9.4820    39.5800    19.6980 c3         1 XNG      -0.074400
      8 C16          9.9060    40.5030    18.5320 c3         1 XNG      -0.073400
      9 C17         11.4290    40.5760    18.2980 c3         1 XNG      -0.088100
     10 C2          11.8590    34.4720    28.3210 c3         1 XNG      -0.068400
     11 C3          11.6110    32.9360    28.3290 c3         1 XNG      -0.211400
     12 C4          10.5820    32.5120    27.2640 c          1 XNG       0.720000
     13 C8          11.9870    35.6920    24.8740 c          1 XNG       0.591100
     14 C9          11.2930    35.1620    23.6110 c3         1 XNG      -0.152400
     15 N7          12.1780    34.7530    25.8560 ns         1 XNG      -0.505900
     16 O18         12.3800    36.8460    24.9850 o          1 XNG      -0.683100
     17 O5          10.9920    32.2480    26.1440 o          1 XNG      -0.732500
     18 O6           9.4000    32.5250    27.5680 o          1 XNG      -0.732500
     19 H1          13.7350    34.4950    27.2190 h1         1 XNG       0.020200
     20 H2          12.9230    36.0700    27.3170 h1         1 XNG       0.020200
     21 H3           9.2970    35.0180    24.4430 hc         1 XNG       0.050200
     22 H4           9.3360    35.0000    22.6900 hc         1 XNG       0.050200
     23 H5           9.7640    37.4750    24.4610 hc         1 XNG       0.037200
     24 H6           8.2990    37.0600    23.5910 hc         1 XNG       0.037200
     25 H7           9.5510    37.2360    21.4070 hc         1 XNG       0.042200
     26 H8          10.9900    37.7510    22.2890 hc         1 XNG       0.042200
     27 H9           9.7050    39.7160    23.2100 hc         1 XNG       0.032700
     28 H10          8.3090    39.2450    22.2490 hc         1 XNG       0.032700
     29 H11         11.0540    40.0450    21.1340 hc         1 XNG       0.034200
     30 H12          9.6500    41.1010    21.2320 hc         1 XNG       0.034200
     31 H13          8.3870    39.5100    19.7030 hc         1 XNG       0.038700
     32 H14          9.8600    38.5690    19.5020 hc         1 XNG       0.038700
     33 H15          9.5190    41.5150    18.7070 hc         1 XNG       0.029200
     34 H16          9.4300    40.1420    17.6110 hc         1 XNG       0.029200
     35 H17         11.6480    41.1800    17.4100 hc         1 XNG       0.029700
     36 H18         11.9390    41.0350    19.1520 hc         1 XNG       0.029700
     37 H19         11.8460    39.5740    18.1400 hc         1 XNG       0.029700
     38 H20         12.3410    34.7450    29.2680 hc         1 XNG       0.025700
     39 H21         10.8980    35.0010    28.3020 hc         1 XNG       0.025700
     40 H22         11.2160    32.7130    29.3280 hc         1 XNG       0.026700
     41 H23         12.5840    32.4690    28.1320 hc         1 XNG       0.026700
     42 H24         11.3820    34.0690    23.5820 hc         1 XNG       0.054200
     43 H25         11.7760    35.5900    22.7260 hc         1 XNG       0.054200
     44 H26         11.7970    33.8230    25.6760 hn         1 XNG       0.394500
@<TRIPOS>BOND
     1     1    10 1   
     2     1    15 1   
     3     1    19 1   
     4     1    20 1   
     5     2     3 1   
     6     2    14 1   
     7     2    21 1   
     8     2    22 1   
     9     3     4 1   
    10     3    23 1   
    11     3    24 1   
    12     4     5 1   
    13     4    25 1   
    14     4    26 1   
    15     5     6 1   
    16     5    27 1   
    17     5    28 1   
    18     6     7 1   
    19     6    29 1   
    20     6    30 1   
    21     7     8 1   
    22     7    31 1   
    23     7    32 1   
    24     8     9 1   
    25     8    33 1   
    26     8    34 1   
    27     9    35 1   
    28     9    36 1   
    29     9    37 1   
    30    10    11 1   
    31    10    38 1   
    32    10    39 1   
    33    11    12 1   
    34    11    40 1   
    35    11    41 1   
    36    12    17 1   
    37    12    18 1   
    38    13    14 1   
    39    13    15 1   
    40    13    16 2   
    41    14    42 1   
    42    14    43 1   
    43    15    44 1   
@<TRIPOS>SUBSTRUCTURE
     1 XNG         1 TEMP              0 ****  ****    0 ROOT
