@<TRIPOS>MOLECULE
XNH
   68    72     1     0     0
SMALL
bcc


@<TRIPOS>ATOM
      1 C1          -6.3430     0.4430    -2.0220 cc         1 XNH       0.572100
      2 C2          -6.1420     2.1380    -0.7140 cc         1 XNH      -0.112300
      3 C3          -5.7550     2.7730     0.4930 cc         1 XNH      -0.027000
      4 N6           7.1030     2.0590    -1.0070 n          1 XNH      -0.466800
      5 C7          -2.7000    -1.7570     1.3000 c6         1 XNH      -0.104400
      6 C8          -1.6230    -1.1670     2.2180 c6         1 XNH      -0.006400
      7 C9          -1.9740     0.2780     2.5890 c6         1 XNH      -0.104400
      8 C10         -3.3970     0.3810     3.1300 c6         1 XNH       0.203800
      9 C11         -0.2390    -1.2740     1.6300 ca         1 XNH      -0.118300
     10 C12          0.0850    -0.6770     0.4090 ca         1 XNH      -0.086000
     11 C13          1.3600    -0.7570    -0.1180 ca         1 XNH      -0.190500
     12 C14          2.3650    -1.4450     0.5670 ca         1 XNH       0.143100
     13 C15          4.6590    -2.0390     0.6960 c3         1 XNH       0.139400
     14 C16          5.9290    -1.8660    -0.1090 c3         1 XNH       0.181800
     15 C19          7.2510     3.4610    -1.3330 c3         1 XNH       0.080300
     16 C20          7.4110     1.1070    -1.9040 c          1 XNH       0.718500
     17 C21          7.1740    -0.3480    -1.5220 c6         1 XNH       0.107500
     18 C22          8.5380    -1.0190    -1.2960 c3         1 XNH      -0.121100
     19 C24          0.7690    -1.9580     2.2930 ca         1 XNH      -0.086000
     20 O2           7.9130     1.3550    -2.9950 o          1 XNH      -0.647500
     21 C18          6.4460     1.7930     0.2600 c6         1 XNH       0.111000
     22 C17          6.5840     0.3500     0.6820 c6         1 XNH       0.158800
     23 N5           6.2220    -0.4870    -0.4360 n3         1 XNH      -0.721600
     24 O1           3.5800    -1.4680    -0.0160 os         1 XNH      -0.301900
     25 C23          2.0600    -2.0520     1.7810 ca         1 XNH      -0.190500
     26 C6          -4.0870    -1.5690     1.9050 c6         1 XNH       0.203800
     27 N4          -4.3560    -0.1640     2.1790 nh         1 XNH      -0.752300
     28 C5          -4.9020     0.6070     1.1960 cd         1 XNH       0.629200
     29 C4          -5.1520     2.0180     1.4330 cd         1 XNH      -0.252300
     30 N2          -5.2410     0.0180     0.0800 nc         1 XNH      -0.537800
     31 N3          -5.8660     0.8020    -0.8110 na         1 XNH       0.072300
     32 N1          -6.7460     2.5500    -1.7990 nd         1 XNH      -0.055000
     33 N           -6.8690     1.4770    -2.6210 nd         1 XNH      -0.449700
     34 O           -6.2410    -0.7980    -2.4410 os         1 XNH      -0.367400
     35 C           -6.8030    -1.0730    -3.7240 c3         1 XNH       0.139700
     36 H1          -5.9630     3.8220     0.6460 ha         1 XNH       0.167000
     37 H2          -2.6670    -1.2840     0.3150 hc         1 XNH       0.056700
     38 H3          -2.5140    -2.8230     1.1470 hc         1 XNH       0.056700
     39 H4          -1.6330    -1.7540     3.1450 hc         1 XNH       0.046700
     40 H5          -1.2750     0.6530     3.3410 hc         1 XNH       0.056700
     41 H6          -1.8770     0.9280     1.7130 hc         1 XNH       0.056700
     42 H7          -3.4890    -0.1940     4.0550 h1         1 XNH       0.062450
     43 H8          -3.6330     1.4100     3.3850 h1         1 XNH       0.062450
     44 H9          -0.6700    -0.1330    -0.1470 ha         1 XNH       0.129500
     45 H10          1.5910    -0.2830    -1.0640 ha         1 XNH       0.141000
     46 H11          4.5010    -3.1120     0.8590 h1         1 XNH       0.033700
     47 H12          4.7500    -1.5770     1.6870 h1         1 XNH       0.033700
     48 H13          6.7310    -2.3590     0.4620 h1         1 XNH       0.045700
     49 H14          5.8350    -2.4230    -1.0450 h1         1 XNH       0.045700
     50 H15          7.7800     3.5800    -2.2730 h1         1 XNH       0.044367
     51 H16          6.2740     3.9430    -1.4170 h1         1 XNH       0.044367
     52 H17          7.8120     3.9680    -0.5470 h1         1 XNH       0.044367
     53 H18          6.7230    -0.8060    -2.4080 h1         1 XNH       0.090700
     54 H19          9.0660    -0.5960    -0.4400 hc         1 XNH       0.045700
     55 H20          8.4180    -2.0880    -1.1220 hc         1 XNH       0.045700
     56 H21          9.1710    -0.9000    -2.1740 hc         1 XNH       0.045700
     57 H22          0.5520    -2.4370     3.2410 ha         1 XNH       0.129500
     58 H23          6.8870     2.4420     1.0190 h1         1 XNH       0.046700
     59 H24          5.3860     2.0580     0.1810 h1         1 XNH       0.046700
     60 H25          7.5980     0.1510     1.0620 h1         1 XNH       0.040700
     61 H26          5.9020     0.1830     1.5150 h1         1 XNH       0.040700
     62 H28          2.8020    -2.6030     2.3420 ha         1 XNH       0.141000
     63 H29         -4.8590    -1.9750     1.2560 h1         1 XNH       0.062450
     64 H30         -4.1510    -2.1010     2.8580 h1         1 XNH       0.062450
     65 H31         -4.8750     2.4680     2.3740 ha         1 XNH       0.151000
     66 H32         -7.8720    -0.8590    -3.7410 h1         1 XNH       0.053700
     67 H33         -6.3080    -0.4960    -4.5050 h1         1 XNH       0.053700
     68 H34         -6.6430    -2.1330    -3.8990 h1         1 XNH       0.053700
@<TRIPOS>BOND
     1     1    31 1   
     2     1    33 2   
     3     1    34 1   
     4     2     3 1   
     5     2    31 1   
     6     2    32 2   
     7     3    29 2   
     8     3    36 1   
     9     4    15 1   
    10     4    16 1   
    11     4    21 1   
    12     5     6 1   
    13     5    26 1   
    14     5    37 1   
    15     5    38 1   
    16     6     7 1   
    17     6     9 1   
    18     6    39 1   
    19     7     8 1   
    20     7    40 1   
    21     7    41 1   
    22     8    27 1   
    23     8    42 1   
    24     8    43 1   
    25     9    10 ar  
    26     9    19 ar  
    27    10    11 ar  
    28    10    44 1   
    29    11    12 ar  
    30    11    45 1   
    31    12    24 1   
    32    12    25 ar  
    33    13    14 1   
    34    13    24 1   
    35    13    46 1   
    36    13    47 1   
    37    14    23 1   
    38    14    48 1   
    39    14    49 1   
    40    15    50 1   
    41    15    51 1   
    42    15    52 1   
    43    16    17 1   
    44    16    20 2   
    45    17    18 1   
    46    17    23 1   
    47    17    53 1   
    48    18    54 1   
    49    18    55 1   
    50    18    56 1   
    51    19    25 ar  
    52    19    57 1   
    53    21    22 1   
    54    21    58 1   
    55    21    59 1   
    56    22    23 1   
    57    22    60 1   
    58    22    61 1   
    59    25    62 1   
    60    26    27 1   
    61    26    63 1   
    62    26    64 1   
    63    27    28 1   
    64    28    29 1   
    65    28    30 2   
    66    29    65 1   
    67    30    31 1   
    68    32    33 1   
    69    34    35 1   
    70    35    66 1   
    71    35    67 1   
    72    35    68 1   
@<TRIPOS>SUBSTRUCTURE
     1 XNH         1 TEMP              0 ****  ****    0 ROOT
