@<TRIPOS>MOLECULE
XNH
   68    72     1     0     0
SMALL
No Charge or Current Charge


@<TRIPOS>ATOM
      1 C1          -6.6330     0.4300    -1.9930 cc         1 XNH       0.572100
      2 C2          -7.0450     1.7900    -0.3210 cc         1 XNH      -0.163000
      3 C3          -6.9430     2.3030     0.9980 cc         1 XNH      -0.009000
      4 N6           7.7170     2.0270    -1.1610 n          1 XNH      -0.399800
      5 C7          -2.7330    -1.7570     1.4350 c6         1 XNH      -0.104400
      6 C8          -1.6820    -1.0100     2.2980 c6         1 XNH      -0.006400
      7 C9          -2.1240     0.4640     2.4990 c6         1 XNH      -0.104400
      8 C10         -3.5520     0.5540     3.0920 c6         1 XNH       0.203800
      9 C11         -0.2690    -1.1130     1.7050 ca         1 XNH      -0.118300
     10 C12          0.0210    -0.5850     0.4290 ca         1 XNH      -0.068000
     11 C13          1.3180    -0.6860    -0.1020 ca         1 XNH      -0.172500
     12 C14          2.3410    -1.3110     0.6270 ca         1 XNH       0.143100
     13 C15          4.7140    -1.9890     0.7250 c3         1 XNH       0.162600
     14 C16          5.9670    -1.8900    -0.1860 c3         1 XNH       0.181800
     15 C19          8.1250     3.4010    -1.5220 c3         1 XNH       0.080300
     16 C20          7.8160     0.9890    -2.1190 c          1 XNH       0.576000
     17 C21          7.4230    -0.4590    -1.6720 c6         1 XNH       0.107500
     18 C22          8.7410    -1.2280    -1.3410 c3         1 XNH      -0.121100
     19 C24          0.7590    -1.7410     2.4360 ca         1 XNH      -0.068000
     20 O2           8.2060     1.2170    -3.2600 o          1 XNH      -0.572000
     21 C18          7.0290     1.8320     0.1460 c6         1 XNH       0.111000
     22 C17          6.8170     0.3520     0.5750 c6         1 XNH       0.158800
     23 N5           6.4000    -0.5090    -0.5670 n3         1 XNH      -0.721600
     24 O1           3.5930    -1.3790     0.0540 os         1 XNH      -0.325100
     25 C23          2.0570    -1.8410     1.9040 ca         1 XNH      -0.172500
     26 C6          -4.1490    -1.6320     2.0470 c6         1 XNH       0.203800
     27 N4          -4.5140    -0.1960     2.2360 nh         1 XNH      -0.752300
     28 C5          -5.3840     0.4790     1.3660 cd         1 XNH       0.563900
     29 C4          -6.1010     1.6390     1.8560 cd         1 XNH      -0.169000
     30 N2          -5.4640    -0.0360     0.1310 nc         1 XNH      -0.537800
     31 N3          -6.3310     0.6880    -0.6800 na         1 XNH       0.123000
     32 N1          -7.7580     2.1970    -1.3640 nd         1 XNH      -0.054000
     33 N           -7.4990     1.3350    -2.4310 nd         1 XNH      -0.449700
     34 O           -6.1360    -0.5950    -2.7640 os         1 XNH      -0.390600
     35 C           -6.5510    -0.7320    -4.1350 c3         1 XNH       0.162900
     36 H1          -7.5120     3.1770     1.3000 ha         1 XNH       0.149000
     37 H2          -2.7450    -1.3550     0.4140 hc         1 XNH       0.056700
     38 H3          -2.4620    -2.8180     1.3500 hc         1 XNH       0.056700
     39 H4          -1.6750    -1.4870     3.2890 hc         1 XNH       0.046700
     40 H5          -1.4180     0.9780     3.1650 hc         1 XNH       0.056700
     41 H6          -2.1000     1.0020     1.5430 hc         1 XNH       0.056700
     42 H7          -3.5500     0.1340     4.1090 h1         1 XNH       0.062450
     43 H8          -3.8250     1.6140     3.1840 h1         1 XNH       0.062450
     44 H9          -0.7570    -0.0970    -0.1530 ha         1 XNH       0.111500
     45 H10          1.5320    -0.2760    -1.0860 ha         1 XNH       0.123000
     46 H11          4.5080    -3.0480     0.9250 h1         1 XNH       0.033700
     47 H12          4.9110    -1.4940     1.6840 h1         1 XNH       0.033700
     48 H13          6.7870    -2.4060     0.3300 h1         1 XNH       0.045700
     49 H14          5.7550    -2.4680    -1.0950 h1         1 XNH       0.045700
     50 H15          9.1700     3.4020    -1.8580 h1         1 XNH       0.044367
     51 H16          7.4860     3.7780    -2.3300 h1         1 XNH       0.044367
     52 H17          8.0330     4.0680    -0.6550 h1         1 XNH       0.044367
     53 H18          6.9960    -0.9220    -2.5740 h1         1 XNH       0.090700
     54 H19          9.2630    -0.7950    -0.4800 hc         1 XNH       0.045700
     55 H20          8.5560    -2.2870    -1.1310 hc         1 XNH       0.045700
     56 H21          9.4330    -1.1910    -2.1910 hc         1 XNH       0.045700
     57 H22          0.5550    -2.1540     3.4220 ha         1 XNH       0.111500
     58 H23          7.5860     2.3560     0.9360 h1         1 XNH       0.046700
     59 H24          6.0420     2.3110     0.0770 h1         1 XNH       0.046700
     60 H25          7.7490    -0.0270     1.0190 h1         1 XNH       0.040700
     61 H26          6.0630     0.3410     1.3740 h1         1 XNH       0.040700
     62 H28          2.8240    -2.3320     2.4950 ha         1 XNH       0.123000
     63 H29         -4.8760    -2.1580     1.4100 h1         1 XNH       0.062450
     64 H30         -4.1640    -2.1460     3.0200 h1         1 XNH       0.062450
     65 H31         -5.9920     1.9720     2.8800 ha         1 XNH       0.133000
     66 H32         -7.6370    -0.8810    -4.2020 h1         1 XNH       0.053700
     67 H33         -6.2850     0.1610    -4.7160 h1         1 XNH       0.053700
     68 H34         -6.0610    -1.5970    -4.5980 h1         1 XNH       0.053700
@<TRIPOS>BOND
     1     1    31 1   
     2     1    33 2   
     3     1    34 1   
     4     2     3 1   
     5     2    31 1   
     6     2    32 2   
     7     3    29 2   
     8     3    36 1   
     9     4    15 1   
    10     4    16 1   
    11     4    21 1   
    12     5     6 1   
    13     5    26 1   
    14     5    37 1   
    15     5    38 1   
    16     6     7 1   
    17     6     9 1   
    18     6    39 1   
    19     7     8 1   
    20     7    40 1   
    21     7    41 1   
    22     8    27 1   
    23     8    42 1   
    24     8    43 1   
    25     9    10 ar  
    26     9    19 ar  
    27    10    11 ar  
    28    10    44 1   
    29    11    12 ar  
    30    11    45 1   
    31    12    24 1   
    32    12    25 ar  
    33    13    14 1   
    34    13    24 1   
    35    13    46 1   
    36    13    47 1   
    37    14    23 1   
    38    14    48 1   
    39    14    49 1   
    40    15    50 1   
    41    15    51 1   
    42    15    52 1   
    43    16    17 1   
    44    16    20 2   
    45    17    18 1   
    46    17    23 1   
    47    17    53 1   
    48    18    54 1   
    49    18    55 1   
    50    18    56 1   
    51    19    25 ar  
    52    19    57 1   
    53    21    22 1   
    54    21    58 1   
    55    21    59 1   
    56    22    23 1   
    57    22    60 1   
    58    22    61 1   
    59    25    62 1   
    60    26    27 1   
    61    26    63 1   
    62    26    64 1   
    63    27    28 1   
    64    28    29 1   
    65    28    30 2   
    66    29    65 1   
    67    30    31 1   
    68    32    33 1   
    69    34    35 1   
    70    35    66 1   
    71    35    67 1   
    72    35    68 1   
@<TRIPOS>SUBSTRUCTURE
     1 XNH         1 TEMP              0 ****  ****    0 ROOT
