@<TRIPOS>MOLECULE
XNI
   65    69     1     0     0
SMALL
abcg2


@<TRIPOS>ATOM
      1 C1          -3.7710    -3.2300     0.6620 c6         1 XNI      -0.173400
      2 C2          -4.8510    -2.3720     1.3130 c6         1 XNI      -0.032000
      3 C3          -4.1430    -1.2100     2.0020 c6         1 XNI      -0.058200
      4 C4          -3.2160    -0.4440     1.0960 c2         1 XNI       0.212800
      5 C5          -2.6260    -1.0440     0.0200 ce         1 XNI      -0.326400
      6 C6          -2.8490    -2.4530    -0.2430 c          1 XNI       0.595300
      7 C8          -2.1820     1.8520     1.0990 ca         1 XNI       0.285000
      8 N10         -2.2270     1.0500    -1.1720 n          1 XNI      -0.242400
      9 C11         -1.7650    -0.3270    -0.9810 c3         1 XNI       0.225200
     10 C12         -1.7540     2.7860     2.0430 ca         1 XNI      -0.157000
     11 C15         -0.9170     3.0210    -0.5850 ca         1 XNI      -0.076000
     12 C16         -0.2840    -0.3220    -0.6770 ca         1 XNI      -0.107300
     13 C17         -3.2680     1.2930    -2.0210 c          1 XNI       0.611100
     14 C19         -3.7910     2.7070    -2.0660 c3         1 XNI      -0.174100
     15 C21          1.9520     0.1670    -1.4250 ca         1 XNI       0.076000
     16 C23          1.6090    -0.6550     0.7920 ca         1 XNI      -0.201000
     17 C24          0.2410    -0.7060     0.5440 ca         1 XNI      -0.050000
     18 C27          5.8480    -0.0570     1.1490 ca         1 XNI      -0.095300
     19 C30          8.5680     0.5450     1.0060 ca         1 XNI      -0.099000
     20 C31          7.6210     1.5490     0.8310 ca         1 XNI      -0.114500
     21 C32          6.2690     1.2490     0.9040 ca         1 XNI      -0.084000
     22 C34         -5.8400    -1.8590     0.2630 c3         1 XNI      -0.089100
     23 C35         -5.6110    -3.1890     2.3540 c3         1 XNI      -0.089100
     24 CL36         3.0280     0.7140    -2.6660 cl         1 XNI      -0.188000
     25 C20          0.5970     0.1090    -1.6670 ca         1 XNI      -0.051000
     26 C22          2.4880    -0.2100    -0.1880 ca         1 XNI       0.153100
     27 C26          4.3840    -0.3690     1.2310 c3         1 XNI       0.210900
     28 C29          8.1550    -0.7560     1.2500 ca         1 XNI      -0.114500
     29 C28          6.7990    -1.0550     1.3170 ca         1 XNI      -0.084000
     30 O33         -2.2760    -3.0230    -1.1660 o          1 XNI      -0.540100
     31 O18         -3.7380     0.4080    -2.7160 o          1 XNI      -0.582100
     32 C9          -1.7800     1.9950    -0.2260 ca         1 XNI      -0.072000
     33 C14         -0.4980     3.9500     0.3520 ca         1 XNI      -0.125000
     34 C13         -0.9280     3.8300     1.6690 ca         1 XNI      -0.081000
     35 N7          -3.0460     0.8380     1.5140 nu         1 XNI      -0.827000
     36 H1          -3.1500    -3.6860     1.4440 hc         1 XNI       0.070200
     37 H1A         -4.2070    -4.0550     0.0930 hc         1 XNI       0.070200
     38 H3          -4.8820    -0.5260     2.4300 hc         1 XNI       0.055700
     39 H3A         -3.5540    -1.5890     2.8460 hc         1 XNI       0.055700
     40 H11         -1.8930    -0.8330    -1.9380 h1         1 XNI       0.114700
     41 H12         -2.0750     2.6910     3.0740 ha         1 XNI       0.113000
     42 H15         -0.5900     3.0900    -1.6150 ha         1 XNI       0.129000
     43 H19         -3.0420     3.3890    -2.4680 hc         1 XNI       0.062033
     44 H19A        -4.6690     2.7410    -2.7060 hc         1 XNI       0.062033
     45 H19B        -4.0610     3.0740    -1.0750 hc         1 XNI       0.062033
     46 H23          1.9740    -0.9730     1.7590 ha         1 XNI       0.116000
     47 H24         -0.4100    -1.0620     1.3310 ha         1 XNI       0.115000
     48 H30          9.6230     0.7790     0.9520 ha         1 XNI       0.113000
     49 H31          7.9380     2.5660     0.6420 ha         1 XNI       0.114000
     50 H32          5.5370     2.0370     0.7770 ha         1 XNI       0.115500
     51 H34         -6.3380    -2.6950    -0.2310 hc         1 XNI       0.041033
     52 H34A        -6.6090    -1.2390     0.7280 hc         1 XNI       0.041033
     53 H34B        -5.3560    -1.2580    -0.5080 hc         1 XNI       0.041033
     54 H35         -4.9430    -3.5730     3.1280 hc         1 XNI       0.041033
     55 H35A        -6.3760    -2.5830     2.8430 hc         1 XNI       0.041033
     56 H35B        -6.1100    -4.0410     1.8890 hc         1 XNI       0.041033
     57 H20          0.2180     0.4150    -2.6350 ha         1 XNI       0.134000
     58 H26          3.9000     0.2640     1.9820 h1         1 XNI       0.042200
     59 H26A         4.2280    -1.4120     1.5230 h1         1 XNI       0.042200
     60 H29          8.8870    -1.5420     1.3860 ha         1 XNI       0.114000
     61 H28          6.4820    -2.0740     1.5040 ha         1 XNI       0.115500
     62 H14          0.1610     4.7570     0.0610 ha         1 XNI       0.123000
     63 H13         -0.6090     4.5480     2.4130 ha         1 XNI       0.117000
     64 HN7         -3.5180     1.0510     2.3800 hn         1 XNI       0.486000
     65 O25          3.8170    -0.1170    -0.0500 os         1 XNI      -0.325100
@<TRIPOS>BOND
     1     1     2 1   
     2     1     6 1   
     3     1    36 1   
     4     1    37 1   
     5     2     3 1   
     6     2    22 1   
     7     2    23 1   
     8     3     4 1   
     9     3    38 1   
    10     3    39 1   
    11     4     5 2   
    12     4    35 1   
    13     5     6 1   
    14     5     9 1   
    15     6    30 2   
    16     7    10 ar  
    17     7    32 ar  
    18     7    35 1   
    19     8     9 1   
    20     8    13 1   
    21     8    32 1   
    22     9    12 1   
    23     9    40 1   
    24    10    34 ar  
    25    10    41 1   
    26    11    32 ar  
    27    11    33 ar  
    28    11    42 1   
    29    12    17 ar  
    30    12    25 ar  
    31    13    14 1   
    32    13    31 2   
    33    14    43 1   
    34    14    44 1   
    35    14    45 1   
    36    15    24 1   
    37    15    25 ar  
    38    15    26 ar  
    39    16    17 ar  
    40    16    26 ar  
    41    16    46 1   
    42    17    47 1   
    43    18    21 ar  
    44    18    27 1   
    45    18    29 ar  
    46    19    20 ar  
    47    19    28 ar  
    48    19    48 1   
    49    20    21 ar  
    50    20    49 1   
    51    21    50 1   
    52    22    51 1   
    53    22    52 1   
    54    22    53 1   
    55    23    54 1   
    56    23    55 1   
    57    23    56 1   
    58    25    57 1   
    59    26    65 1   
    60    27    58 1   
    61    27    59 1   
    62    27    65 1   
    63    28    29 ar  
    64    28    60 1   
    65    29    61 1   
    66    33    34 ar  
    67    33    62 1   
    68    34    63 1   
    69    35    64 1   
@<TRIPOS>SUBSTRUCTURE
     1 XNI         1 TEMP              0 ****  ****    0 ROOT
