@<TRIPOS>MOLECULE
XNI
   65    69     1     0     0
SMALL
No Charge or Current Charge


@<TRIPOS>ATOM
      1 C1          -3.4100    -3.1560     0.6330 c6         1 XNI      -0.173400
      2 C2          -4.5480    -2.5440     1.4880 c6         1 XNI      -0.032000
      3 C3          -4.1110    -1.1250     1.9710 c6         1 XNI      -0.058200
      4 C4          -3.2630    -0.3040     0.9890 c2         1 XNI       0.212800
      5 C5          -2.7320    -0.8350    -0.1450 ce         1 XNI      -0.326400
      6 C6          -3.1160    -2.2230    -0.5340 c          1 XNI       0.595300
      7 C8          -2.2560     2.0840     0.9470 ca         1 XNI       0.285000
      8 N10         -2.3070     1.2460    -1.3660 n          1 XNI      -0.242400
      9 C11         -1.8120    -0.1230    -1.1330 c3         1 XNI       0.225200
     10 C12         -1.9370     3.1090     1.8550 ca         1 XNI      -0.157000
     11 C15         -1.3130     3.4350    -0.8530 ca         1 XNI      -0.076000
     12 C16         -0.3230    -0.1450    -0.7560 ca         1 XNI      -0.107300
     13 C17         -3.2860     1.4680    -2.3680 c          1 XNI       0.611100
     14 C19         -3.9790     2.8330    -2.4350 c3         1 XNI      -0.174100
     15 C21          1.9990     0.2300    -1.4280 ca         1 XNI       0.076000
     16 C23          1.4980    -0.4860     0.8440 ca         1 XNI      -0.201000
     17 C24          0.1260    -0.4960     0.5360 ca         1 XNI      -0.050000
     18 C27          5.8590    -0.2970     1.3500 ca         1 XNI      -0.095300
     19 C30          8.6650    -0.0430     1.2300 ca         1 XNI      -0.099000
     20 C31          7.8740     1.0610     1.5890 ca         1 XNI      -0.114500
     21 C32          6.4750     0.9350     1.6490 ca         1 XNI      -0.084000
     22 C34         -5.8660    -2.4470     0.6540 c3         1 XNI      -0.089100
     23 C35         -4.8480    -3.4640     2.7080 c3         1 XNI      -0.089100
     24 Cl36         3.1460     0.6960    -2.6850 cl         1 XNI      -0.188000
     25 C20          0.6270     0.2170    -1.7310 ca         1 XNI      -0.051000
     26 C22          2.4460    -0.1220    -0.1370 ca         1 XNI       0.153100
     27 C26          4.3440    -0.4340     1.4140 c3         1 XNI       0.210900
     28 C29          8.0570    -1.2730     0.9280 ca         1 XNI      -0.114500
     29 C28          6.6580    -1.4000     0.9870 ca         1 XNI      -0.084000
     30 O33         -3.0910    -2.6420    -1.6840 o          1 XNI      -0.540100
     31 O18         -3.6070     0.5930    -3.1640 o          1 XNI      -0.582100
     32 C9          -1.8940     2.2280    -0.4110 ca         1 XNI      -0.072000
     33 C14         -0.9950     4.4490     0.0630 ca         1 XNI      -0.125000
     34 C13         -1.2980     4.2820     1.4220 ca         1 XNI      -0.081000
     35 N7          -2.9770     0.9870     1.4440 nu         1 XNI      -0.827000
     36 H1          -2.5140    -3.1700     1.2690 hc         1 XNI       0.070200
     37 H1A         -3.6290    -4.1710     0.2760 hc         1 XNI       0.070200
     38 H3          -4.9970    -0.5460     2.2690 hc         1 XNI       0.055700
     39 H3A         -3.5170    -1.2360     2.8890 hc         1 XNI       0.055700
     40 H11         -1.8560    -0.6470    -2.0960 h1         1 XNI       0.114700
     41 H12         -2.1980     3.0070     2.9050 ha         1 XNI       0.113000
     42 H15         -1.0720     3.5720    -1.9050 ha         1 XNI       0.129000
     43 H19         -3.2610     3.5780    -2.7920 hc         1 XNI       0.062033
     44 H19A        -4.8590     2.8190    -3.0880 hc         1 XNI       0.062033
     45 H19B        -4.2230     3.1810    -1.4250 hc         1 XNI       0.062033
     46 H23          1.8020    -0.7610     1.8500 ha         1 XNI       0.116000
     47 H24         -0.5790    -0.7710     1.3160 ha         1 XNI       0.115000
     48 H30          9.7480     0.0550     1.1830 ha         1 XNI       0.113000
     49 H31          8.3430     2.0140     1.8210 ha         1 XNI       0.114000
     50 H32          5.8680     1.7950     1.9260 ha         1 XNI       0.115500
     51 H34         -6.1560    -3.4240     0.2490 hc         1 XNI       0.041033
     52 H34A        -6.7010    -2.0850     1.2670 hc         1 XNI       0.041033
     53 H34B        -5.7670    -1.7550    -0.1920 hc         1 XNI       0.041033
     54 H35         -3.9580    -3.6020     3.3350 hc         1 XNI       0.041033
     55 H35A        -5.6360    -3.0420     3.3450 hc         1 XNI       0.041033
     56 H35B        -5.1790    -4.4600     2.3880 hc         1 XNI       0.041033
     57 H20          0.3020     0.4970    -2.7300 ha         1 XNI       0.134000
     58 H26          3.9490     0.2380     2.1870 h1         1 XNI       0.042200
     59 H26A         4.0800    -1.4640     1.6870 h1         1 XNI       0.042200
     60 H29          8.6690    -2.1280     0.6480 ha         1 XNI       0.114000
     61 H28          6.1940    -2.3550     0.7500 ha         1 XNI       0.115500
     62 H14         -0.5190     5.3650    -0.2810 ha         1 XNI       0.123000
     63 H13         -1.0570     5.0690     2.1340 ha         1 XNI       0.117000
     64 HN7         -3.3160     1.1580     2.3900 hn         1 XNI       0.486000
     65 O25          3.8030    -0.0970     0.1260 os         1 XNI      -0.325100
@<TRIPOS>BOND
     1     1     2 1   
     2     1     6 1   
     3     1    36 1   
     4     1    37 1   
     5     2     3 1   
     6     2    22 1   
     7     2    23 1   
     8     3     4 1   
     9     3    38 1   
    10     3    39 1   
    11     4     5 2   
    12     4    35 1   
    13     5     6 1   
    14     5     9 1   
    15     6    30 2   
    16     7    10 ar  
    17     7    32 ar  
    18     7    35 1   
    19     8     9 1   
    20     8    13 1   
    21     8    32 1   
    22     9    12 1   
    23     9    40 1   
    24    10    34 ar  
    25    10    41 1   
    26    11    32 ar  
    27    11    33 ar  
    28    11    42 1   
    29    12    17 ar  
    30    12    25 ar  
    31    13    14 1   
    32    13    31 2   
    33    14    43 1   
    34    14    44 1   
    35    14    45 1   
    36    15    24 1   
    37    15    25 ar  
    38    15    26 ar  
    39    16    17 ar  
    40    16    26 ar  
    41    16    46 1   
    42    17    47 1   
    43    18    21 ar  
    44    18    27 1   
    45    18    29 ar  
    46    19    20 ar  
    47    19    28 ar  
    48    19    48 1   
    49    20    21 ar  
    50    20    49 1   
    51    21    50 1   
    52    22    51 1   
    53    22    52 1   
    54    22    53 1   
    55    23    54 1   
    56    23    55 1   
    57    23    56 1   
    58    25    57 1   
    59    26    65 1   
    60    27    58 1   
    61    27    59 1   
    62    27    65 1   
    63    28    29 ar  
    64    28    60 1   
    65    29    61 1   
    66    33    34 ar  
    67    33    62 1   
    68    34    63 1   
    69    35    64 1   
@<TRIPOS>SUBSTRUCTURE
     1 XNI         1 TEMP              0 ****  ****    0 ROOT
