@<TRIPOS>MOLECULE
XNJ
   63    67     1     0     0
SMALL
abcg2


@<TRIPOS>ATOM
      1 CBE         19.1910     5.9630    24.8140 c6         1 XNJ       0.132800
      2 CBF         20.2480     5.8910    23.7190 c6         1 XNJ       0.146800
      3 NBG         19.7090     6.0800    22.3820 n7         1 XNJ      -0.840400
      4 CBH         18.9090     7.2920    22.3220 c6         1 XNJ       0.146800
      5 CBI         17.8460     7.3680    23.4110 c6         1 XNJ       0.132800
      6 NBD         18.4650     7.2160    24.7140 n3         1 XNJ      -0.726600
      7 CBC         17.5790     7.4830    25.8310 c3         1 XNJ       0.218100
      8 CAZ         16.4140     6.5310    25.9830 ca         1 XNJ      -0.097300
      9 CBA         15.2150     6.7600    25.3120 ca         1 XNJ      -0.111000
     10 CBB         14.1570     5.8710    25.4120 ca         1 XNJ      -0.071500
     11 CAY         16.5170     5.3890    26.7750 ca         1 XNJ      -0.111000
     12 CAX         15.4580     4.5040    26.8950 ca         1 XNJ      -0.071500
     13 CAV         14.2710     4.7280    26.2010 ca         1 XNJ      -0.156600
     14 CAU         13.1480     3.7630    26.3850 c          1 XNJ       0.621700
     15 OAW         13.0290     3.1140    27.4100 o          1 XNJ      -0.573100
     16 NAT         12.2960     3.6710    25.3310 ns         1 XNJ      -0.145000
     17 CAO         11.1260     2.9130    25.2290 ca         1 XNJ      -0.002000
     18 CAN         10.6350     2.6840    23.9450 ca         1 XNJ      -0.187000
     19 CAP         10.4010     2.4390    26.3200 ca         1 XNJ      -0.131000
     20 CAQ          9.2160     1.7520    26.1020 ca         1 XNJ      -0.068000
     21 CAR          8.7200     1.4900    24.8310 ca         1 XNJ      -0.120300
     22 CAS          7.4480     0.7230    24.6290 c3         1 XNJ      -0.045800
     23 CAM          9.4620     1.9690    23.7460 ca         1 XNJ       0.310000
     24 NAL          9.0020     1.7390    22.4400 nu         1 XNJ      -0.948900
     25 CAJ          9.7140     1.1530    21.4470 cc         1 XNJ       0.718300
     26 NAK          9.2390     0.9530    20.2600 nd         1 XNJ      -0.734000
     27 SAI         11.3340     0.5540    21.6910 ss         1 XNJ      -0.071400
     28 CAH         11.3300     0.0010    20.0570 cc         1 XNJ      -0.284000
     29 CAG         10.1440     0.2960    19.4640 cd         1 XNJ       0.391500
     30 CAF          9.7760    -0.0170    18.0810 ca         1 XNJ      -0.171500
     31 CAA         10.6200    -0.7210    17.2230 ca         1 XNJ      -0.063000
     32 CAB         10.2090    -0.9820    15.9300 ca         1 XNJ      -0.171000
     33 CAC          8.9600    -0.5320    15.5240 ca         1 XNJ       0.340900
     34 NAD          8.1420     0.1390    16.3250 nb         1 XNJ      -0.672000
     35 CAE          8.5430     0.3860    17.5650 ca         1 XNJ       0.367900
     36 H1          18.5270     5.0850    24.7310 h1         1 XNJ       0.034950
     37 H2          19.6700     5.9070    25.7960 h1         1 XNJ       0.034950
     38 H3          20.7640     4.9300    23.7660 h1         1 XNJ       0.059450
     39 H4          20.9980     6.6690    23.8980 h1         1 XNJ       0.059450
     40 H5          19.1200     5.2870    22.1520 hn         1 XNJ       0.400000
     41 H7          19.5800     8.1510    22.4210 h1         1 XNJ       0.059450
     42 H8          18.4360     7.3620    21.3410 h1         1 XNJ       0.059450
     43 H9          17.3400     8.3360    23.3690 h1         1 XNJ       0.034950
     44 H10         17.0810     6.5960    23.2200 h1         1 XNJ       0.034950
     45 H12         18.1780     7.4670    26.7460 h1         1 XNJ       0.061700
     46 H13         17.1970     8.5020    25.7210 h1         1 XNJ       0.061700
     47 H14         15.0960     7.6560    24.7140 ha         1 XNJ       0.118000
     48 H15         13.2340     6.1030    24.8940 ha         1 XNJ       0.126000
     49 H16         17.4330     5.1940    27.3200 ha         1 XNJ       0.118000
     50 H17         15.5570     3.6310    27.5270 ha         1 XNJ       0.126000
     51 H18         12.5800     4.1280    24.4780 hn         1 XNJ       0.156000
     52 H19         11.1650     3.0940    23.0920 ha         1 XNJ       0.124000
     53 H20         10.7340     2.6060    27.3310 ha         1 XNJ       0.148000
     54 H21          8.6620     1.3970    26.9620 ha         1 XNJ       0.119000
     55 H22          7.5950    -0.1350    23.9710 hc         1 XNJ       0.045700
     56 H23          7.0640     0.3550    25.5780 hc         1 XNJ       0.045700
     57 H24          6.6640     1.3400    24.1820 hc         1 XNJ       0.045700
     58 H25          8.0110     1.8180    22.2610 hn         1 XNJ       0.514000
     59 H26         12.1990    -0.4850    19.6440 h4         1 XNJ       0.160000
     60 H27         11.5910    -1.0680    17.5570 ha         1 XNJ       0.116000
     61 H28         10.8430    -1.5280    15.2440 ha         1 XNJ       0.123000
     62 H29          8.6100    -0.7220    14.5160 h4         1 XNJ       0.018100
     63 H30          7.8530     0.9370    18.1940 h4         1 XNJ       0.040100
@<TRIPOS>BOND
     1     1     2 1   
     2     1     6 1   
     3     1    36 1   
     4     1    37 1   
     5     2     3 1   
     6     2    38 1   
     7     2    39 1   
     8     3     4 1   
     9     3    40 1   
    10     4     5 1   
    11     4    41 1   
    12     4    42 1   
    13     5     6 1   
    14     5    43 1   
    15     5    44 1   
    16     6     7 1   
    17     7     8 1   
    18     7    45 1   
    19     7    46 1   
    20     8     9 ar  
    21     8    11 ar  
    22     9    10 ar  
    23     9    47 1   
    24    10    13 ar  
    25    10    48 1   
    26    11    12 ar  
    27    11    49 1   
    28    12    13 ar  
    29    12    50 1   
    30    13    14 1   
    31    14    15 2   
    32    14    16 1   
    33    16    17 1   
    34    16    51 1   
    35    17    18 ar  
    36    17    19 ar  
    37    18    23 ar  
    38    18    52 1   
    39    19    20 ar  
    40    19    53 1   
    41    20    21 ar  
    42    20    54 1   
    43    21    22 1   
    44    21    23 ar  
    45    22    55 1   
    46    22    56 1   
    47    22    57 1   
    48    23    24 1   
    49    24    25 1   
    50    24    58 1   
    51    25    26 2   
    52    25    27 1   
    53    26    29 1   
    54    27    28 1   
    55    28    29 2   
    56    28    59 1   
    57    29    30 1   
    58    30    31 ar  
    59    30    35 ar  
    60    31    32 ar  
    61    31    60 1   
    62    32    33 ar  
    63    32    61 1   
    64    33    34 ar  
    65    33    62 1   
    66    34    35 ar  
    67    35    63 1   
@<TRIPOS>SUBSTRUCTURE
     1 XNJ         1 TEMP              0 ****  ****    0 ROOT
