@<TRIPOS>MOLECULE
XNJ
   63    67     1     0     0
SMALL
No Charge or Current Charge


@<TRIPOS>ATOM
      1 CBE         19.2970     6.7520    25.7700 c6         1 XNJ       0.132800
      2 CBF         20.7270     6.2940    25.3330 c6         1 XNJ       0.146800
      3 NBG         20.7140     5.5520    24.0380 n7         1 XNJ      -0.840400
      4 CBH         20.0270     6.3460    22.9770 c6         1 XNJ       0.146800
      5 CBI         18.5960     6.8040    23.4110 c6         1 XNJ       0.132800
      6 NBD         18.6130     7.5510    24.7070 n3         1 XNJ      -0.726600
      7 CBC         17.2870     8.0890    25.1130 c3         1 XNJ       0.218100
      8 CAZ         16.2250     7.0270    25.4050 ca         1 XNJ      -0.097300
      9 CBA         15.3750     6.5660    24.3820 ca         1 XNJ      -0.111000
     10 CBB         14.3920     5.5970    24.6480 ca         1 XNJ      -0.071500
     11 CAY         16.0660     6.5150    26.7050 ca         1 XNJ      -0.111000
     12 CAX         15.0850     5.5460    26.9770 ca         1 XNJ      -0.071500
     13 CAV         14.2320     5.0690    25.9540 ca         1 XNJ      -0.156600
     14 CAU         13.1830     4.0200    26.2840 c          1 XNJ       0.621700
     15 OAW         13.0640     3.5810    27.4230 o          1 XNJ      -0.573100
     16 NAT         12.3890     3.6050    25.2200 ns         1 XNJ      -0.145000
     17 CAO         11.3200     2.6700    25.1230 ca         1 XNJ      -0.002000
     18 CAN         10.7630     2.4560    23.8500 ca         1 XNJ      -0.187000
     19 CAP         10.7910     1.9630    26.2220 ca         1 XNJ      -0.131000
     20 CAQ          9.7250     1.0660    26.0430 ca         1 XNJ      -0.068000
     21 CAR          9.1720     0.8530    24.7660 ca         1 XNJ      -0.120300
     22 CAS          8.0160    -0.1330    24.6050 c3         1 XNJ      -0.045800
     23 CAM          9.7070     1.5500    23.6600 ca         1 XNJ       0.310000
     24 NAL          9.1730     1.3660    22.3890 nu         1 XNJ      -0.948900
     25 CAJ          9.7400     1.1360    21.1870 cc         1 XNJ       0.718300
     26 NAK          8.9160     0.7920    20.2340 nd         1 XNJ      -0.734000
     27 SAI         11.4420     1.1620    20.8170 ss         1 XNJ      -0.071400
     28 CAH         11.0020     0.6970    19.1980 cc         1 XNJ      -0.284000
     29 CAG          9.6360     0.5440    19.0750 cd         1 XNJ       0.391500
     30 CAF          8.9420     0.1480    17.8370 ca         1 XNJ      -0.171500
     31 CAA          9.6460    -0.1160    16.6420 ca         1 XNJ      -0.063000
     32 CAB          8.9180    -0.4900    15.5020 ca         1 XNJ      -0.171000
     33 CAC          7.5210    -0.5900    15.5790 ca         1 XNJ       0.340900
     34 NAD          6.8320    -0.3410    16.7150 nb         1 XNJ      -0.672000
     35 CAE          7.5350     0.0200    17.8170 ca         1 XNJ       0.367900
     36 H1          18.7060     5.8570    26.0130 h1         1 XNJ       0.034950
     37 H2          19.3830     7.3420    26.6940 h1         1 XNJ       0.034950
     38 H3          21.1640     5.6620    26.1210 h1         1 XNJ       0.059450
     39 H4          21.3690     7.1830    25.2370 h1         1 XNJ       0.059450
     40 H5          20.1750     4.6900    24.1790 hn         1 XNJ       0.400000
     41 H7          20.6270     7.2380    22.7430 h1         1 XNJ       0.059450
     42 H8          19.9550     5.7520    22.0540 h1         1 XNJ       0.059450
     43 H9          18.1700     7.4330    22.6150 h1         1 XNJ       0.034950
     44 H10         17.9580     5.9130    23.4940 h1         1 XNJ       0.034950
     45 H12         17.4040     8.7170    26.0070 h1         1 XNJ       0.061700
     46 H13         16.9040     8.7540    24.3260 h1         1 XNJ       0.061700
     47 H14         15.4790     6.9580    23.3730 ha         1 XNJ       0.118000
     48 H15         13.7640     5.2710    23.8220 ha         1 XNJ       0.126000
     49 H16         16.7070     6.8660    27.5110 ha         1 XNJ       0.118000
     50 H17         14.9900     5.1680    27.9930 ha         1 XNJ       0.126000
     51 H18         12.6120     4.0520    24.3420 hn         1 XNJ       0.156000
     52 H19         11.1480     3.0120    23.0000 ha         1 XNJ       0.124000
     53 H20         11.1820     2.0970    27.2260 ha         1 XNJ       0.148000
     54 H21          9.3280     0.5340    26.9060 ha         1 XNJ       0.119000
     55 H22          8.2580    -0.9120    23.8720 hc         1 XNJ       0.045700
     56 H23          7.7780    -0.6390    25.5480 hc         1 XNJ       0.045700
     57 H24          7.1050     0.3780    24.2700 hc         1 XNJ       0.045700
     58 H25          8.2190     1.0280    22.3610 hn         1 XNJ       0.514000
     59 H26         11.7750     0.5640    18.4550 h4         1 XNJ       0.160000
     60 H27         10.7280    -0.0380    16.5860 ha         1 XNJ       0.116000
     61 H28          9.4250    -0.7010    14.5640 ha         1 XNJ       0.123000
     62 H29          6.9340    -0.8780    14.7070 h4         1 XNJ       0.018100
     63 H30          6.9360     0.2100    18.7070 h4         1 XNJ       0.040100
@<TRIPOS>BOND
     1     1     2 1   
     2     1     6 1   
     3     1    36 1   
     4     1    37 1   
     5     2     3 1   
     6     2    38 1   
     7     2    39 1   
     8     3     4 1   
     9     3    40 1   
    10     4     5 1   
    11     4    41 1   
    12     4    42 1   
    13     5     6 1   
    14     5    43 1   
    15     5    44 1   
    16     6     7 1   
    17     7     8 1   
    18     7    45 1   
    19     7    46 1   
    20     8     9 ar  
    21     8    11 ar  
    22     9    10 ar  
    23     9    47 1   
    24    10    13 ar  
    25    10    48 1   
    26    11    12 ar  
    27    11    49 1   
    28    12    13 ar  
    29    12    50 1   
    30    13    14 1   
    31    14    15 2   
    32    14    16 1   
    33    16    17 1   
    34    16    51 1   
    35    17    18 ar  
    36    17    19 ar  
    37    18    23 ar  
    38    18    52 1   
    39    19    20 ar  
    40    19    53 1   
    41    20    21 ar  
    42    20    54 1   
    43    21    22 1   
    44    21    23 ar  
    45    22    55 1   
    46    22    56 1   
    47    22    57 1   
    48    23    24 1   
    49    24    25 1   
    50    24    58 1   
    51    25    26 2   
    52    25    27 1   
    53    26    29 1   
    54    27    28 1   
    55    28    29 2   
    56    28    59 1   
    57    29    30 1   
    58    30    31 ar  
    59    30    35 ar  
    60    31    32 ar  
    61    31    60 1   
    62    32    33 ar  
    63    32    61 1   
    64    33    34 ar  
    65    33    62 1   
    66    34    35 ar  
    67    35    63 1   
@<TRIPOS>SUBSTRUCTURE
     1 XNJ         1 TEMP              0 ****  ****    0 ROOT
