@<TRIPOS>MOLECULE
XNK
   32    34     1     0     0
SMALL
abcg2


@<TRIPOS>ATOM
      1 N1         -26.0560   -44.8980   -25.6980 nb         1 XNK      -0.817000
      2 N3         -21.7240   -44.8260   -27.8510 nc         1 XNK      -0.379300
      3 C4         -25.8930   -47.3450   -23.4090 ca         1 XNK      -0.225300
      4 C5         -25.3550   -48.5690   -23.0140 ca         1 XNK      -0.038000
      5 C6         -26.1150   -49.7310   -22.9610 ca         1 XNK      -0.195000
      6 C7         -24.7520   -45.2370   -25.7010 ca         1 XNK       0.683900
      7 C8         -26.5900   -44.2730   -26.7490 ca         1 XNK       0.432900
      8 C10        -24.5290   -44.2910   -27.9130 ca         1 XNK       0.024000
      9 C13        -20.6340   -46.0670   -26.4110 cc         1 XNK       0.505900
     10 C1         -27.4500   -49.6320   -23.3110 ca         1 XNK       0.206000
     11 C2         -28.0350   -48.4510   -23.7160 ca         1 XNK      -0.200000
     12 C3         -27.2500   -47.2960   -23.7760 ca         1 XNK       0.206100
     13 O1         -27.8490   -46.1500   -24.1720 oh         1 XNK      -0.588100
     14 F          -28.2240   -50.7490   -23.2640 f          1 XNK      -0.184000
     15 C9         -25.8720   -43.9420   -27.8830 ca         1 XNK      -0.244000
     16 C11        -23.9340   -44.9380   -26.8370 ca         1 XNK      -0.287500
     17 C12        -22.5120   -45.2600   -26.8950 cd         1 XNK       0.643500
     18 N2         -21.8460   -46.0460   -25.9660 nd         1 XNK      -0.761000
     19 O2         -20.4690   -45.3690   -27.5300 os         1 XNK      -0.100700
     20 C14        -25.0300   -46.1020   -23.3870 c3         1 XNK       0.288100
     21 N4         -24.2650   -45.8430   -24.6010 nu         1 XNK      -0.928100
     22 H1         -24.3120   -48.6080   -22.7240 ha         1 XNK       0.109000
     23 H2         -25.6950   -50.6770   -22.6480 ha         1 XNK       0.133000
     24 H3         -27.6470   -44.0420   -26.6710 h4         1 XNK       0.026100
     25 H4         -23.9280   -44.0630   -28.7830 ha         1 XNK       0.136000
     26 H5         -19.7710   -46.5660   -25.9950 h5         1 XNK       0.090100
     27 H6         -29.0790   -48.4170   -23.9970 ha         1 XNK       0.145000
     28 H7         -27.1740   -45.5750   -24.6520 ho         1 XNK       0.524000
     29 H8         -26.3470   -43.4430   -28.7160 ha         1 XNK       0.135000
     30 H9         -24.2960   -46.2060   -22.5890 h1         1 XNK       0.062200
     31 H10        -25.6370   -45.2260   -23.1580 h1         1 XNK       0.062200
     32 H11        -23.3110   -46.1730   -24.6440 hn         1 XNK       0.534000
@<TRIPOS>BOND
     1     1     6 ar  
     2     1     7 ar  
     3     2    17 2   
     4     2    19 1   
     5     3     4 ar  
     6     3    12 ar  
     7     3    20 1   
     8     4     5 ar  
     9     4    22 1   
    10     5    10 ar  
    11     5    23 1   
    12     6    16 ar  
    13     6    21 1   
    14     7    15 ar  
    15     7    24 1   
    16     8    15 ar  
    17     8    16 ar  
    18     8    25 1   
    19     9    18 2   
    20     9    19 1   
    21     9    26 1   
    22    10    11 ar  
    23    10    14 1   
    24    11    12 ar  
    25    11    27 1   
    26    12    13 1   
    27    13    28 1   
    28    15    29 1   
    29    16    17 1   
    30    17    18 1   
    31    20    21 1   
    32    20    30 1   
    33    20    31 1   
    34    21    32 1   
@<TRIPOS>SUBSTRUCTURE
     1 XNK         1 TEMP              0 ****  ****    0 ROOT
