@<TRIPOS>MOLECULE
XNK
   32    34     1     0     0
SMALL
No Charge or Current Charge


@<TRIPOS>ATOM
      1 N1         -26.0760   -44.4630   -25.4830 nb         1 XNK      -0.817000
      2 N3         -21.9950   -45.5670   -27.9120 nc         1 XNK      -0.379300
      3 C4         -25.8240   -47.1790   -23.4040 ca         1 XNK      -0.225300
      4 C5         -25.1370   -48.3550   -23.0360 ca         1 XNK      -0.038000
      5 C6         -25.7470   -49.6100   -23.1950 ca         1 XNK      -0.195000
      6 C7         -24.8380   -44.9680   -25.5630 ca         1 XNK       0.683900
      7 C8         -26.6140   -43.9360   -26.6030 ca         1 XNK       0.432900
      8 C10        -24.6520   -44.4570   -27.9070 ca         1 XNK       0.024000
      9 C13        -20.9160   -46.5270   -26.2370 cc         1 XNK       0.505900
     10 C1         -27.0450   -49.6950   -23.7160 ca         1 XNK       0.206000
     11 C2         -27.7350   -48.5340   -24.0860 ca         1 XNK      -0.200000
     12 C3         -27.1250   -47.2820   -23.9380 ca         1 XNK       0.206100
     13 O1         -27.8060   -46.1730   -24.3300 oh         1 XNK      -0.588100
     14 F          -27.6320   -50.9020   -23.8650 f          1 XNK      -0.184000
     15 C9         -25.9400   -43.9160   -27.8260 ca         1 XNK      -0.244000
     16 C11        -24.0710   -45.0020   -26.7410 ca         1 XNK      -0.287500
     17 C12        -22.7140   -45.5740   -26.7990 cd         1 XNK       0.643500
     18 N2         -22.0800   -46.1640   -25.7270 nd         1 XNK      -0.761000
     19 O2         -20.7880   -46.2010   -27.5510 os         1 XNK      -0.100700
     20 C14        -25.1570   -45.8290   -23.1740 c3         1 XNK       0.288100
     21 N4         -24.3880   -45.4360   -24.3570 nu         1 XNK      -0.928100
     22 H1         -24.1320   -48.2960   -22.6210 ha         1 XNK       0.109000
     23 H2         -25.2180   -50.5160   -22.9100 ha         1 XNK       0.133000
     24 H3         -27.6190   -43.5250   -26.5150 h4         1 XNK       0.026100
     25 H4         -24.1250   -44.4440   -28.8600 ha         1 XNK       0.136000
     26 H5         -20.0950   -47.0310   -25.7420 h5         1 XNK       0.090100
     27 H6         -28.7380   -48.6080   -24.4960 ha         1 XNK       0.145000
     28 H7         -27.1250   -45.5110   -24.6530 ho         1 XNK       0.524000
     29 H8         -26.4180   -43.4860   -28.7010 ha         1 XNK       0.135000
     30 H9         -24.4790   -45.9170   -22.3130 h1         1 XNK       0.062200
     31 H10        -25.8990   -45.0630   -22.9060 h1         1 XNK       0.062200
     32 H11        -23.4540   -45.8470   -24.4530 hn         1 XNK       0.534000
@<TRIPOS>BOND
     1     1     6 ar  
     2     1     7 ar  
     3     2    17 2   
     4     2    19 1   
     5     3     4 ar  
     6     3    12 ar  
     7     3    20 1   
     8     4     5 ar  
     9     4    22 1   
    10     5    10 ar  
    11     5    23 1   
    12     6    16 ar  
    13     6    21 1   
    14     7    15 ar  
    15     7    24 1   
    16     8    15 ar  
    17     8    16 ar  
    18     8    25 1   
    19     9    18 2   
    20     9    19 1   
    21     9    26 1   
    22    10    11 ar  
    23    10    14 1   
    24    11    12 ar  
    25    11    27 1   
    26    12    13 1   
    27    13    28 1   
    28    15    29 1   
    29    16    17 1   
    30    17    18 1   
    31    20    21 1   
    32    20    30 1   
    33    20    31 1   
    34    21    32 1   
@<TRIPOS>SUBSTRUCTURE
     1 XNK         1 TEMP              0 ****  ****    0 ROOT
