@<TRIPOS>MOLECULE
XNL
   44    47     1     0     0
SMALL
abcg2


@<TRIPOS>ATOM
      1 CAA         -3.7670    -0.5900     1.2340 c6         1 XNL      -0.069900
      2 CAB         -5.2300    -0.8170     0.8690 c6         1 XNL      -0.073900
      3 CAC         -5.7670     0.3060    -0.0100 c6         1 XNL      -0.075400
      4 CAD         -4.8980     0.4860    -1.2480 c6         1 XNL      -0.073900
      5 CAE         -3.4330     0.7080    -0.8860 c6         1 XNL      -0.069900
      6 CAF         -2.8840    -0.4200    -0.0070 c6         1 XNL      -0.093700
      7 CAG         -1.4200    -0.1930     0.3820 c3         1 XNL       0.146300
      8 OAV         -0.9300    -1.1920     1.2470 oh         1 XNL      -0.639000
      9 CAH         -0.5170    -0.0760    -0.8520 c3         1 XNL       0.048600
     10 NAI          0.8800     0.0210    -0.5110 na         1 XNL      -0.077600
     11 CAM          1.7680    -1.0230    -0.4150 ca         1 XNL       0.020800
     12 CAU          1.5770    -2.3770    -0.6840 ca         1 XNL      -0.144000
     13 CAT          2.6600    -3.2220    -0.5240 ca         1 XNL      -0.074000
     14 CAS          3.9110    -2.7490    -0.1040 ca         1 XNL      -0.149000
     15 CAR          4.0990    -1.4060     0.1600 ca         1 XNL      -0.042000
     16 CAL          3.0230    -0.5340     0.0040 cp         1 XNL      -0.096000
     17 CAK          2.8630     0.8820     0.1830 cp         1 XNL      -0.052000
     18 CAJ          1.5240     1.1730    -0.1380 ca         1 XNL      -0.059200
     19 CAN          1.0590     2.4820    -0.0540 ca         1 XNL       0.316900
     20 NAO          1.8600     3.4660     0.3140 nb         1 XNL      -0.650000
     21 CAP          3.1360     3.1970     0.6130 ca         1 XNL       0.293900
     22 CAQ          3.6910     1.9310     0.5670 ca         1 XNL      -0.103000
     23 H1          -3.6830     0.3120     1.8520 hc         1 XNL       0.043950
     24 H2          -3.4080    -1.4190     1.8450 hc         1 XNL       0.043950
     25 H3          -5.3280    -1.7720     0.3410 hc         1 XNL       0.040450
     26 H4          -5.8290    -0.9050     1.7790 hc         1 XNL       0.040450
     27 H5          -6.8010     0.1030    -0.3000 hc         1 XNL       0.041700
     28 H6          -5.7810     1.2400     0.5630 hc         1 XNL       0.041700
     29 H7          -4.9780    -0.4060    -1.8790 hc         1 XNL       0.040450
     30 H8          -5.2600     1.3230    -1.8490 hc         1 XNL       0.040450
     31 H9          -2.8540     0.8040    -1.8070 hc         1 XNL       0.043950
     32 H10         -3.3300     1.6610    -0.3520 hc         1 XNL       0.043950
     33 H11         -2.9280    -1.3520    -0.5920 hc         1 XNL       0.042700
     34 H12         -1.3530     0.7430     0.9510 h1         1 XNL       0.083700
     35 H13         -1.1570    -2.0550     0.8840 ho         1 XNL       0.438000
     36 H14         -0.6550    -0.9410    -1.5070 h1         1 XNL       0.061200
     37 H15         -0.7840     0.7980    -1.4460 h1         1 XNL       0.061200
     38 H16          0.6230    -2.7680    -1.0130 ha         1 XNL       0.111000
     39 H17          2.5350    -4.2780    -0.7260 ha         1 XNL       0.110000
     40 H18          4.7310    -3.4440     0.0120 ha         1 XNL       0.114000
     41 H19          5.0640    -1.0360     0.4830 ha         1 XNL       0.117000
     42 H20          0.0300     2.7380    -0.2860 h4         1 XNL       0.017100
     43 H21          3.7460     4.0440     0.9060 h4         1 XNL       0.018100
     44 H22          4.7320     1.7760     0.8210 ha         1 XNL       0.124000
@<TRIPOS>BOND
     1     1     2 1   
     2     1     6 1   
     3     1    23 1   
     4     1    24 1   
     5     2     3 1   
     6     2    25 1   
     7     2    26 1   
     8     3     4 1   
     9     3    27 1   
    10     3    28 1   
    11     4     5 1   
    12     4    29 1   
    13     4    30 1   
    14     5     6 1   
    15     5    31 1   
    16     5    32 1   
    17     6     7 1   
    18     6    33 1   
    19     7     8 1   
    20     7     9 1   
    21     7    34 1   
    22     8    35 1   
    23     9    10 1   
    24     9    36 1   
    25     9    37 1   
    26    10    11 1   
    27    10    18 1   
    28    11    12 ar  
    29    11    16 ar  
    30    12    13 ar  
    31    12    38 1   
    32    13    14 ar  
    33    13    39 1   
    34    14    15 ar  
    35    14    40 1   
    36    15    16 ar  
    37    15    41 1   
    38    16    17 1   
    39    17    18 ar  
    40    17    22 ar  
    41    18    19 ar  
    42    19    20 ar  
    43    19    42 1   
    44    20    21 ar  
    45    21    22 ar  
    46    21    43 1   
    47    22    44 1   
@<TRIPOS>SUBSTRUCTURE
     1 XNL         1 TEMP              0 ****  ****    0 ROOT
