@<TRIPOS>MOLECULE
XNL
   44    47     1     0     0
SMALL
No Charge or Current Charge


@<TRIPOS>ATOM
      1 CAA         -3.9170    -0.4880     1.2800 c6         1 XNL      -0.069900
      2 CAB         -5.4070    -0.6370     0.8860 c6         1 XNL      -0.073900
      3 CAC         -5.8480     0.4930    -0.0710 c6         1 XNL      -0.075400
      4 CAD         -4.9430     0.5340    -1.3240 c6         1 XNL      -0.073900
      5 CAE         -3.4500     0.6810    -0.9390 c6         1 XNL      -0.069900
      6 CAF         -2.9800    -0.4500     0.0300 c6         1 XNL      -0.093700
      7 CAG         -1.4720    -0.3010     0.4410 c3         1 XNL       0.146300
      8 OAV         -1.0890    -1.3540     1.3410 oh         1 XNL      -0.639000
      9 CAH         -0.4760    -0.2700    -0.7530 c3         1 XNL       0.048600
     10 NAI          0.9370    -0.1070    -0.3540 na         1 XNL      -0.077600
     11 CAM          1.8870    -1.1440    -0.3880 ca         1 XNL       0.020800
     12 CAU          1.7740    -2.5120    -0.6680 ca         1 XNL      -0.144000
     13 CAT          2.9540    -3.2860    -0.6100 ca         1 XNL      -0.074000
     14 CAS          4.1950    -2.6860    -0.2790 ca         1 XNL      -0.149000
     15 CAR          4.2800    -1.3040     0.0000 ca         1 XNL      -0.042000
     16 CAL          3.1010    -0.5380    -0.0590 cp         1 XNL      -0.096000
     17 CAK          2.8540     0.8820     0.1700 cp         1 XNL      -0.052000
     18 CAJ          1.5010     1.1340    -0.0180 ca         1 XNL      -0.059200
     19 CAN          0.9600     2.4200     0.1310 ca         1 XNL       0.316900
     20 NAO          1.7590     3.4680     0.4710 nb         1 XNL      -0.650000
     21 CAP          3.0920     3.2310     0.6600 ca         1 XNL       0.293900
     22 CAQ          3.6910     1.9560     0.5220 ca         1 XNL      -0.103000
     23 H1          -3.7850     0.4290     1.8710 hc         1 XNL       0.043950
     24 H2          -3.6450    -1.3220     1.9410 hc         1 XNL       0.043950
     25 H3          -5.5680    -1.6130     0.4080 hc         1 XNL       0.040450
     26 H4          -6.0330    -0.6250     1.7890 hc         1 XNL       0.040450
     27 H5          -6.8940     0.3440    -0.3700 hc         1 XNL       0.041700
     28 H6          -5.8050     1.4600     0.4490 hc         1 XNL       0.041700
     29 H7          -5.0850    -0.3840    -1.9120 hc         1 XNL       0.040450
     30 H8          -5.2440     1.3680    -1.9730 hc         1 XNL       0.040450
     31 H9          -2.8590     0.6690    -1.8640 hc         1 XNL       0.043950
     32 H10         -3.2850     1.6640    -0.4750 hc         1 XNL       0.043950
     33 H11         -3.0680    -1.4100    -0.4970 hc         1 XNL       0.042700
     34 H12         -1.3790     0.6630     0.9600 h1         1 XNL       0.083700
     35 H13         -1.3180    -2.2040     0.9090 ho         1 XNL       0.438000
     36 H14         -0.5840    -1.1860    -1.3460 h1         1 XNL       0.061200
     37 H15         -0.7220     0.5700    -1.4130 h1         1 XNL       0.061200
     38 H16          0.8190    -2.9670    -0.9180 ha         1 XNL       0.111000
     39 H17          2.9100    -4.3520    -0.8210 ha         1 XNL       0.110000
     40 H18          5.0940    -3.2980    -0.2390 ha         1 XNL       0.114000
     41 H19          5.2320    -0.8430     0.2550 ha         1 XNL       0.117000
     42 H20         -0.1000     2.6220    -0.0170 h4         1 XNL       0.017100
     43 H21          3.6990     4.0940     0.9310 h4         1 XNL       0.018100
     44 H22          4.7560     1.8190     0.6820 ha         1 XNL       0.124000
@<TRIPOS>BOND
     1     1     2 1   
     2     1     6 1   
     3     1    23 1   
     4     1    24 1   
     5     2     3 1   
     6     2    25 1   
     7     2    26 1   
     8     3     4 1   
     9     3    27 1   
    10     3    28 1   
    11     4     5 1   
    12     4    29 1   
    13     4    30 1   
    14     5     6 1   
    15     5    31 1   
    16     5    32 1   
    17     6     7 1   
    18     6    33 1   
    19     7     8 1   
    20     7     9 1   
    21     7    34 1   
    22     8    35 1   
    23     9    10 1   
    24     9    36 1   
    25     9    37 1   
    26    10    11 1   
    27    10    18 1   
    28    11    12 ar  
    29    11    16 ar  
    30    12    13 ar  
    31    12    38 1   
    32    13    14 ar  
    33    13    39 1   
    34    14    15 ar  
    35    14    40 1   
    36    15    16 ar  
    37    15    41 1   
    38    16    17 1   
    39    17    18 ar  
    40    17    22 ar  
    41    18    19 ar  
    42    19    20 ar  
    43    19    42 1   
    44    20    21 ar  
    45    21    22 ar  
    46    21    43 1   
    47    22    44 1   
@<TRIPOS>SUBSTRUCTURE
     1 XNL         1 TEMP              0 ****  ****    0 ROOT
