@<TRIPOS>MOLECULE
XNM
   55    58     1     0     0
SMALL
abcg2


@<TRIPOS>ATOM
      1 CLAA        -9.7940    -1.7190     1.1490 cl         1 XNM      -0.196000
      2 CAB         -8.2890    -1.0180     0.6620 ca         1 XNM       0.136000
      3 CAC         -8.2380    -0.2400    -0.4840 ca         1 XNM      -0.115000
      4 CAD         -7.0310     0.3230    -0.8630 ca         1 XNM      -0.065000
      5 CAE         -7.1530    -1.2420     1.4250 ca         1 XNM      -0.115000
      6 CAF         -5.9530    -0.6760     1.0310 ca         1 XNM      -0.065000
      7 CAG         -5.8720     0.1170    -0.1140 cp         1 XNM      -0.162500
      8 CAH         -4.5800     0.7150    -0.5080 cp         1 XNM       0.232500
      9 NAI         -3.5030     0.2810     0.1300 nb         1 XNM      -0.258000
     10 CAJ         -2.3230     0.8070    -0.1980 ca         1 XNM       0.392900
     11 NAK         -1.2760     0.3020     0.5150 nu         1 XNM      -0.927900
     12 CAL          0.0790     0.5900     0.5010 ca         1 XNM       0.337000
     13 CAM          0.7030     1.4970    -0.3620 ca         1 XNM      -0.166500
     14 CAN          2.0690     1.7090    -0.2680 ca         1 XNM      -0.043500
     15 OAO          4.6440     2.5290     0.8210 o          1 XNM      -0.600100
     16 CAP         -4.4720     1.6970    -1.4950 ca         1 XNM      -0.263000
     17 CAQ         -3.2010     2.1670    -1.7560 ca         1 XNM       0.147900
     18 NAR         -2.1180     1.7360    -1.1240 nb         1 XNM      -0.224000
     19 CAS          0.8670    -0.0920     1.4380 ca         1 XNM      -0.166500
     20 CAT          2.2300     0.1110     1.5010 ca         1 XNM      -0.043500
     21 CAU          2.8560     1.0150     0.6430 ca         1 XNM      -0.178600
     22 CAV          4.3040     1.3520     0.7650 c          1 XNM       0.621700
     23 NAW          5.1850     0.3310     0.8590 n          1 XNM      -0.406800
     24 CAX          6.5860     0.5850     1.1410 c6         1 XNM       0.096000
     25 CAY          7.4560     0.2630    -0.0620 c6         1 XNM       0.143300
     26 CAZ          4.9520    -1.0210     0.3800 c6         1 XNM       0.096000
     27 CBA          5.8480    -1.3170    -0.8130 c6         1 XNM       0.143300
     28 NBB          7.2430    -1.1060    -0.4870 n3         1 XNM      -0.707600
     29 CBC          8.1140    -1.5070    -1.5740 c3         1 XNM       0.171800
     30 CBD          9.5640    -1.6840    -1.1720 c3         1 XNM       0.166600
     31 OBE          9.6570    -2.6820    -0.1820 oh         1 XNM      -0.643000
     32 HAC         -9.1250    -0.0750    -1.0790 ha         1 XNM       0.132500
     33 HAD         -7.0130     0.9200    -1.7650 ha         1 XNM       0.129000
     34 HAE         -7.2010    -1.8500     2.3180 ha         1 XNM       0.132500
     35 HAF         -5.0670    -0.8510     1.6250 ha         1 XNM       0.129000
     36 HNAK        -1.5620    -0.3900     1.1920 hn         1 XNM       0.510000
     37 HAM          0.1260     2.0360    -1.0940 ha         1 XNM       0.133500
     38 HAN          2.5270     2.4290    -0.9340 ha         1 XNM       0.124000
     39 HAP         -5.3200     2.0920    -2.0310 ha         1 XNM       0.137000
     40 HAQ         -3.0460     2.9310    -2.5100 h4         1 XNM       0.025100
     41 HAS          0.4000    -0.7870     2.1260 ha         1 XNM       0.133500
     42 HAT          2.8050    -0.4270     2.2440 ha         1 XNM       0.124000
     43 HAX          6.7200     1.6220     1.4350 h1         1 XNM       0.063950
     44 HAXA         6.8870    -0.0460     1.9820 h1         1 XNM       0.063950
     45 HAY          7.2430     0.9830    -0.8720 h1         1 XNM       0.038700
     46 HAYA         8.4980     0.4080     0.2270 h1         1 XNM       0.038700
     47 HAZ          5.1580    -1.7320     1.1850 h1         1 XNM       0.063950
     48 HAZA         3.9160    -1.1530     0.0820 h1         1 XNM       0.063950
     49 HBA          5.7010    -2.3600    -1.1030 h1         1 XNM       0.038700
     50 HBAA         5.5190    -0.6950    -1.6650 h1         1 XNM       0.038700
     51 HBC          7.7470    -2.4610    -1.9650 h1         1 XNM       0.037700
     52 HBCA         8.0820    -0.7960    -2.4170 h1         1 XNM       0.037700
     53 HBD         10.1210    -1.9540    -2.0790 h1         1 XNM       0.015700
     54 HBDA         9.9880    -0.7330    -0.8260 h1         1 XNM       0.015700
     55 HOBE        10.5830    -2.7770     0.0570 ho         1 XNM       0.436000
@<TRIPOS>BOND
     1     1     2 1   
     2     2     3 ar  
     3     2     5 ar  
     4     3     4 ar  
     5     3    32 1   
     6     4     7 ar  
     7     4    33 1   
     8     5     6 ar  
     9     5    34 1   
    10     6     7 ar  
    11     6    35 1   
    12     7     8 1   
    13     8     9 ar  
    14     8    16 ar  
    15     9    10 ar  
    16    10    11 1   
    17    10    18 ar  
    18    11    12 1   
    19    11    36 1   
    20    12    13 ar  
    21    12    19 ar  
    22    13    14 ar  
    23    13    37 1   
    24    14    21 ar  
    25    14    38 1   
    26    15    22 2   
    27    16    17 ar  
    28    16    39 1   
    29    17    18 ar  
    30    17    40 1   
    31    19    20 ar  
    32    19    41 1   
    33    20    21 ar  
    34    20    42 1   
    35    21    22 1   
    36    22    23 1   
    37    23    24 1   
    38    23    26 1   
    39    24    25 1   
    40    24    43 1   
    41    24    44 1   
    42    25    28 1   
    43    25    45 1   
    44    25    46 1   
    45    26    27 1   
    46    26    47 1   
    47    26    48 1   
    48    27    28 1   
    49    27    49 1   
    50    27    50 1   
    51    28    29 1   
    52    29    30 1   
    53    29    51 1   
    54    29    52 1   
    55    30    31 1   
    56    30    53 1   
    57    30    54 1   
    58    31    55 1   
@<TRIPOS>SUBSTRUCTURE
     1 XNM         1 TEMP              0 ****  ****    0 ROOT
