@<TRIPOS>MOLECULE
XNM
   55    58     1     0     0
SMALL
No Charge or Current Charge


@<TRIPOS>ATOM
      1 ClAA       -10.2260    -0.9660     1.3980 cl         1 XNM      -0.196000
      2 CAB         -8.6250    -0.5190     0.8220 ca         1 XNM       0.136000
      3 CAC         -8.4100    -0.2890    -0.5440 ca         1 XNM      -0.115000
      4 CAD         -7.1310     0.0680    -1.0060 ca         1 XNM      -0.065000
      5 CAE         -7.5640    -0.3950     1.7290 ca         1 XNM      -0.115000
      6 CAF         -6.2830    -0.0390     1.2700 ca         1 XNM      -0.065000
      7 CAG         -6.0360     0.2050    -0.1100 cp         1 XNM      -0.162500
      8 CAH         -4.6650     0.5860    -0.6000 cp         1 XNM       0.232500
      9 NAI         -3.6140     0.2920     0.1940 nb         1 XNM      -0.258000
     10 CAJ         -2.3880     0.6380    -0.2290 ca         1 XNM       0.392900
     11 NAK         -1.3570     0.2720     0.6270 nu         1 XNM      -0.927900
     12 CAL          0.0200     0.5110     0.6650 ca         1 XNM       0.337000
     13 CAM          0.6020     1.6570     0.0970 ca         1 XNM      -0.166500
     14 CAN          1.9900     1.8670     0.1720 ca         1 XNM      -0.043500
     15 OAO          4.7370     2.3340     0.9620 o          1 XNM      -0.600100
     16 CAP         -4.4380     1.2400    -1.8370 ca         1 XNM      -0.263000
     17 CAQ         -3.1170     1.5480    -2.1960 ca         1 XNM       0.147900
     18 NAR         -2.0840     1.2420    -1.3920 nb         1 XNM      -0.224000
     19 CAS          0.8410    -0.4060     1.3390 ca         1 XNM      -0.166500
     20 CAT          2.2300    -0.2040     1.4160 ca         1 XNM      -0.043500
     21 CAU          2.8240     0.9260     0.8110 ca         1 XNM      -0.178600
     22 CAV          4.3130     1.1870     0.8970 c          1 XNM       0.621700
     23 NAW          5.1910     0.0850     1.0050 n          1 XNM      -0.406800
     24 CAX          6.6210     0.2700     1.3840 c6         1 XNM       0.096000
     25 CAY          7.5750     0.1590     0.1640 c6         1 XNM       0.143300
     26 CAZ          4.9820    -1.1700     0.2240 c6         1 XNM       0.096000
     27 CBA          5.9600    -1.2810    -0.9800 c6         1 XNM       0.143300
     28 NBB          7.3860    -1.1260    -0.5730 n3         1 XNM      -0.707600
     29 CBC          8.3210    -1.3010    -1.7240 c3         1 XNM       0.171800
     30 CBD          9.8450    -1.3350    -1.3910 c3         1 XNM       0.166600
     31 OBE         10.1820    -2.4400    -0.5330 oh         1 XNM      -0.643000
     32 HAC         -9.2330    -0.3910    -1.2460 ha         1 XNM       0.132500
     33 HAD         -6.9950     0.2230    -2.0730 ha         1 XNM       0.129000
     34 HAE         -7.7320    -0.5740     2.7880 ha         1 XNM       0.132500
     35 HAF         -5.4810     0.0550     1.9980 ha         1 XNM       0.129000
     36 HNAK        -1.6750    -0.3760     1.3480 hn         1 XNM       0.510000
     37 HAM         -0.0150     2.4060    -0.3880 ha         1 XNM       0.133500
     38 HAN          2.4180     2.7630    -0.2740 ha         1 XNM       0.124000
     39 HAP         -5.2540     1.5140    -2.4970 ha         1 XNM       0.137000
     40 HAQ         -2.8840     2.0490    -3.1340 h4         1 XNM       0.025100
     41 HAS          0.4040    -1.2840     1.8070 ha         1 XNM       0.133500
     42 HAT          2.8370    -0.9230     1.9640 ha         1 XNM       0.124000
     43 HAX          6.7700     1.2400     1.8790 h1         1 XNM       0.063950
     44 HAXA         6.8910    -0.5040     2.1160 h1         1 XNM       0.063950
     45 HAY          7.3940     1.0130    -0.5060 h1         1 XNM       0.038700
     46 HAYA         8.6070     0.2500     0.5320 h1         1 XNM       0.038700
     47 HAZ          5.1290    -2.0330     0.8890 h1         1 XNM       0.063950
     48 HAZA         3.9580    -1.2290    -0.1680 h1         1 XNM       0.063950
     49 HBA          5.8060    -2.2560    -1.4660 h1         1 XNM       0.038700
     50 HBAA         5.6930    -0.5090    -1.7180 h1         1 XNM       0.038700
     51 HBC          8.0820    -2.2380    -2.2450 h1         1 XNM       0.037700
     52 HBCA         8.1570    -0.4930    -2.4490 h1         1 XNM       0.037700
     53 HBD         10.4010    -1.4170    -2.3340 h1         1 XNM       0.015700
     54 HBDA        10.1410    -0.3860    -0.9250 h1         1 XNM       0.015700
     55 HOBE        11.1400    -2.3610    -0.3320 ho         1 XNM       0.436000
@<TRIPOS>BOND
     1     1     2 1   
     2     2     3 ar  
     3     2     5 ar  
     4     3     4 ar  
     5     3    32 1   
     6     4     7 ar  
     7     4    33 1   
     8     5     6 ar  
     9     5    34 1   
    10     6     7 ar  
    11     6    35 1   
    12     7     8 1   
    13     8     9 ar  
    14     8    16 ar  
    15     9    10 ar  
    16    10    11 1   
    17    10    18 ar  
    18    11    12 1   
    19    11    36 1   
    20    12    13 ar  
    21    12    19 ar  
    22    13    14 ar  
    23    13    37 1   
    24    14    21 ar  
    25    14    38 1   
    26    15    22 2   
    27    16    17 ar  
    28    16    39 1   
    29    17    18 ar  
    30    17    40 1   
    31    19    20 ar  
    32    19    41 1   
    33    20    21 ar  
    34    20    42 1   
    35    21    22 1   
    36    22    23 1   
    37    23    24 1   
    38    23    26 1   
    39    24    25 1   
    40    24    43 1   
    41    24    44 1   
    42    25    28 1   
    43    25    45 1   
    44    25    46 1   
    45    26    27 1   
    46    26    47 1   
    47    26    48 1   
    48    27    28 1   
    49    27    49 1   
    50    27    50 1   
    51    28    29 1   
    52    29    30 1   
    53    29    51 1   
    54    29    52 1   
    55    30    31 1   
    56    30    53 1   
    57    30    54 1   
    58    31    55 1   
@<TRIPOS>SUBSTRUCTURE
     1 XNM         1 TEMP              0 ****  ****    0 ROOT
