@<TRIPOS>MOLECULE
XNN
   57    62     1     0     0
SMALL
No Charge or Current Charge


@<TRIPOS>ATOM
      1 C01          5.5050     4.5540     0.5610 c3         1 XNN       0.022900
      2 S02          3.9680     3.5290     0.6120 ss         1 XNN      -0.168000
      3 C03          4.4470     1.8890     0.0190 ca         1 XNN      -0.134000
      4 C04          5.8050     1.5020    -0.0240 ca         1 XNN      -0.096000
      5 C05          6.1670     0.2280    -0.4920 ca         1 XNN      -0.120000
      6 C06          5.1810    -0.6680    -0.9260 ca         1 XNN      -0.094000
      7 C07          3.8280    -0.2960    -0.8810 ca         1 XNN      -0.109000
      8 C08          3.4480     0.9730    -0.3950 ca         1 XNN       0.317000
      9 N09          2.1110     1.3860    -0.3450 nu         1 XNN      -0.925900
     10 C10          0.8690     0.7580    -0.2770 ca         1 XNN       0.439900
     11 N11          0.8440    -0.5750    -0.1510 nb         1 XNN      -0.306000
     12 C12         -0.3630    -1.1550    -0.0640 ca         1 XNN       0.434900
     13 N13         -1.5490    -0.5180    -0.0810 nb         1 XNN      -0.288000
     14 C14         -1.5430     0.8320    -0.1930 ca         1 XNN      -0.035000
     15 C15         -2.7320     1.6050    -0.2130 ca         1 XNN       0.394900
     16 N16         -2.7090     2.9470    -0.3160 nb         1 XNN      -0.279000
     17 C17         -1.4940     3.5200    -0.4030 ca         1 XNN       0.148900
     18 N18         -0.3030     2.8860    -0.3970 nb         1 XNN      -0.204000
     19 C19         -0.3140     1.5340    -0.2930 ca         1 XNN      -0.135000
     20 N20         -3.9880     1.0030    -0.1180 nu         1 XNN      -0.911100
     21 C21         -5.2880     1.6630     0.0380 c3         1 XNN       0.258800
     22 C22         -6.3950     0.6190     0.0890 cx         1 XNN      -0.151700
     23 C23         -7.7310     0.9430     0.7200 cx         1 XNN      -0.126900
     24 C24         -6.7960    -0.0350     1.3930 cx         1 XNN      -0.126900
     25 N25         -0.3880    -2.5220     0.0560 nn         1 XNN      -0.785300
     26 C26         -1.5600    -3.4970     0.1780 cy         1 XNN       0.255800
     27 C27         -0.4250    -4.5060     0.2330 cy         1 XNN      -0.140000
     28 C28         -0.4520    -5.6120    -0.8080 cy         1 XNN       0.149800
     29 N29          0.0680    -6.4280     0.3870 n6         1 XNN      -0.843400
     30 C30         -0.3840    -5.4140     1.4500 cy         1 XNN       0.149800
     31 C31          0.7510    -3.5440     0.1130 cy         1 XNN       0.255800
     32 H01          5.9420     4.5200    -0.4440 h1         1 XNN       0.065367
     33 H01A         5.2580     5.5930     0.8100 h1         1 XNN       0.065367
     34 H01B         6.2310     4.1780     1.2930 h1         1 XNN       0.065367
     35 H04          6.5930     2.1720     0.3060 ha         1 XNN       0.114000
     36 H05          7.2160    -0.0610    -0.5230 ha         1 XNN       0.114000
     37 H06          5.4640    -1.6500    -1.3010 ha         1 XNN       0.116000
     38 H07          3.0850    -0.9950    -1.2450 ha         1 XNN       0.137000
     39 HN09         2.0230     2.3910    -0.2140 hn         1 XNN       0.544000
     40 H17         -1.4690     4.6050    -0.4870 h5         1 XNN       0.044100
     41 HN20        -3.9620    -0.0100    -0.0010 hn         1 XNN       0.521000
     42 H21         -5.3000     2.2640     0.9590 h1         1 XNN       0.058200
     43 H21A        -5.4730     2.3410    -0.8070 h1         1 XNN       0.058200
     44 H22         -6.4240     0.0010    -0.8060 hc         1 XNN       0.086700
     45 H23         -7.8580     1.9200     1.1820 hc         1 XNN       0.073450
     46 H23A        -8.6250     0.5450     0.2460 hc         1 XNN       0.073450
     47 H24         -7.0620    -1.0890     1.3700 hc         1 XNN       0.073450
     48 H24A        -6.2960     0.2870     2.3030 hc         1 XNN       0.073450
     49 H26         -2.1500    -3.4150     1.1000 h1         1 XNN       0.061950
     50 H26A        -2.2060    -3.5750    -0.7050 h1         1 XNN       0.061950
     51 H28         -1.4630    -5.8720    -1.1480 h1         1 XNN       0.052700
     52 H28A         0.2270    -5.4860    -1.6600 h1         1 XNN       0.052700
     53 HN29        -0.2610    -7.3970     0.4910 hn         1 XNN       0.409000
     54 H30          0.3440    -5.1450     2.2250 h1         1 XNN       0.052700
     55 H30A        -1.3710    -5.6050     1.8900 h1         1 XNN       0.052700
     56 H31          1.3430    -3.6440    -0.8050 h1         1 XNN       0.061950
     57 H31A         1.3960    -3.4840     0.9980 h1         1 XNN       0.061950
@<TRIPOS>BOND
     1     1     2 1   
     2     1    32 1   
     3     1    33 1   
     4     1    34 1   
     5     2     3 1   
     6     3     4 ar  
     7     3     8 ar  
     8     4     5 ar  
     9     4    35 1   
    10     5     6 ar  
    11     5    36 1   
    12     6     7 ar  
    13     6    37 1   
    14     7     8 ar  
    15     7    38 1   
    16     8     9 1   
    17     9    10 1   
    18     9    39 1   
    19    10    11 ar  
    20    10    19 ar  
    21    11    12 ar  
    22    12    13 ar  
    23    12    25 1   
    24    13    14 ar  
    25    14    15 ar  
    26    14    19 ar  
    27    15    16 ar  
    28    15    20 1   
    29    16    17 ar  
    30    17    18 ar  
    31    17    40 1   
    32    18    19 ar  
    33    20    21 1   
    34    20    41 1   
    35    21    22 1   
    36    21    42 1   
    37    21    43 1   
    38    22    23 1   
    39    22    24 1   
    40    22    44 1   
    41    23    24 1   
    42    23    45 1   
    43    23    46 1   
    44    24    47 1   
    45    24    48 1   
    46    25    26 1   
    47    25    31 1   
    48    26    27 1   
    49    26    49 1   
    50    26    50 1   
    51    27    28 1   
    52    27    30 1   
    53    27    31 1   
    54    28    29 1   
    55    28    51 1   
    56    28    52 1   
    57    29    30 1   
    58    29    53 1   
    59    30    54 1   
    60    30    55 1   
    61    31    56 1   
    62    31    57 1   
@<TRIPOS>SUBSTRUCTURE
     1 XNN         1 TEMP              0 ****  ****    0 ROOT
