@<TRIPOS>MOLECULE
XNN
   57    62     1     0     0
SMALL
abcg2


@<TRIPOS>ATOM
      1 C01          5.4380     4.3250     0.5850 c3         1 XNN       0.022900
      2 S02          3.9340     3.3450     0.7550 ss         1 XNN      -0.168000
      3 C03          4.3650     1.8090    -0.0030 ca         1 XNN      -0.134000
      4 C04          5.6790     1.3690    -0.1290 ca         1 XNN      -0.096000
      5 C05          5.9590     0.1310    -0.6860 ca         1 XNN      -0.120000
      6 C06          4.9220    -0.6810    -1.1220 ca         1 XNN      -0.094000
      7 C07          3.6090    -0.2500    -1.0190 ca         1 XNN      -0.109000
      8 C08          3.3170     0.9940    -0.4640 ca         1 XNN       0.317000
      9 N09          2.0150     1.4970    -0.3950 nu         1 XNN      -0.925900
     10 C10          0.8600     0.8310    -0.2060 ca         1 XNN       0.439900
     11 N11          0.8270    -0.4610     0.0050 nb         1 XNN      -0.306000
     12 C12         -0.3810    -1.0400     0.1840 ca         1 XNN       0.434900
     13 N13         -1.5590    -0.4380     0.1620 nb         1 XNN      -0.288000
     14 C14         -1.5130     0.8890    -0.0400 ca         1 XNN      -0.035000
     15 C15         -2.7250     1.6700    -0.0590 ca         1 XNN       0.394900
     16 N16         -2.6750     2.9790    -0.2340 nb         1 XNN      -0.279000
     17 C17         -1.4720     3.5440    -0.4130 ca         1 XNN       0.148900
     18 N18         -0.3110     2.9480    -0.4250 nb         1 XNN      -0.204000
     19 C19         -0.3490     1.6090    -0.2310 ca         1 XNN      -0.135000
     20 N20         -3.8860     1.0390     0.1030 nu         1 XNN      -0.911100
     21 C21         -5.1760     1.6900     0.1780 c3         1 XNN       0.258800
     22 C22         -6.2690     0.7080    -0.1320 cx         1 XNN      -0.151700
     23 C23         -7.6000     0.8610     0.5340 cx         1 XNN      -0.126900
     24 C24         -6.6990    -0.2730     0.9200 cx         1 XNN      -0.126900
     25 N25         -0.3580    -2.3560     0.4170 nn         1 XNN      -0.785300
     26 C26         -1.4320    -3.3280     0.4070 cy         1 XNN       0.255800
     27 C27         -0.3680    -4.4340     0.3710 cy         1 XNN      -0.140000
     28 C28         -0.3680    -5.5810    -0.6410 cy         1 XNN       0.149800
     29 N29          0.1690    -6.4690     0.4000 n6         1 XNN      -0.843400
     30 C30         -0.2580    -5.5230     1.4420 cy         1 XNN       0.149800
     31 C31          0.7080    -3.3300     0.2900 cy         1 XNN       0.255800
     32 H01          5.7660     4.3660    -0.4510 h1         1 XNN       0.065367
     33 H01A         5.1760     5.3290     0.9120 h1         1 XNN       0.065367
     34 H01B         6.2410     3.9560     1.2190 h1         1 XNN       0.065367
     35 H04          6.4970     1.9860     0.2190 ha         1 XNN       0.114000
     36 H05          6.9860    -0.1970    -0.7710 ha         1 XNN       0.114000
     37 H06          5.1330    -1.6490    -1.5570 ha         1 XNN       0.116000
     38 H07          2.8080    -0.8780    -1.3760 ha         1 XNN       0.137000
     39 HN09         1.9000     2.4990    -0.5040 hn         1 XNN       0.544000
     40 H17         -1.4770     4.6180    -0.5610 h5         1 XNN       0.044100
     41 HN20        -3.8350     0.0480     0.2880 hn         1 XNN       0.521000
     42 H21         -5.3300     2.1200     1.1750 h1         1 XNN       0.058200
     43 H21A        -5.1950     2.5200    -0.5300 h1         1 XNN       0.058200
     44 H22         -6.2800     0.3510    -1.1560 hc         1 XNN       0.086700
     45 H23         -7.7230     1.6730     1.2420 hc         1 XNN       0.073450
     46 H23A        -8.4870     0.6390    -0.0450 hc         1 XNN       0.073450
     47 H24         -6.9700    -1.2720     0.6060 hc         1 XNN       0.073450
     48 H24A        -6.2140    -0.2270     1.8880 hc         1 XNN       0.073450
     49 H26         -2.0690    -3.3130     1.2960 h1         1 XNN       0.061950
     50 H26A        -2.0690    -3.2760    -0.4810 h1         1 XNN       0.061950
     51 H28         -1.3850    -5.8300    -0.9680 h1         1 XNN       0.052700
     52 H28A         0.2630    -5.4650    -1.5270 h1         1 XNN       0.052700
     53 HN29        -0.2700    -7.3790     0.4490 hn         1 XNN       0.409000
     54 H30          0.4630    -5.3600     2.2470 h1         1 XNN       0.052700
     55 H30A        -1.2340    -5.7500     1.8860 h1         1 XNN       0.052700
     56 H31          1.2460    -3.2800    -0.6610 h1         1 XNN       0.061950
     57 H31A         1.4350    -3.3110     1.1060 h1         1 XNN       0.061950
@<TRIPOS>BOND
     1     1     2 1   
     2     1    32 1   
     3     1    33 1   
     4     1    34 1   
     5     2     3 1   
     6     3     4 ar  
     7     3     8 ar  
     8     4     5 ar  
     9     4    35 1   
    10     5     6 ar  
    11     5    36 1   
    12     6     7 ar  
    13     6    37 1   
    14     7     8 ar  
    15     7    38 1   
    16     8     9 1   
    17     9    10 1   
    18     9    39 1   
    19    10    11 ar  
    20    10    19 ar  
    21    11    12 ar  
    22    12    13 ar  
    23    12    25 1   
    24    13    14 ar  
    25    14    15 ar  
    26    14    19 ar  
    27    15    16 ar  
    28    15    20 1   
    29    16    17 ar  
    30    17    18 ar  
    31    17    40 1   
    32    18    19 ar  
    33    20    21 1   
    34    20    41 1   
    35    21    22 1   
    36    21    42 1   
    37    21    43 1   
    38    22    23 1   
    39    22    24 1   
    40    22    44 1   
    41    23    24 1   
    42    23    45 1   
    43    23    46 1   
    44    24    47 1   
    45    24    48 1   
    46    25    26 1   
    47    25    31 1   
    48    26    27 1   
    49    26    49 1   
    50    26    50 1   
    51    27    28 1   
    52    27    30 1   
    53    27    31 1   
    54    28    29 1   
    55    28    51 1   
    56    28    52 1   
    57    29    30 1   
    58    29    53 1   
    59    30    54 1   
    60    30    55 1   
    61    31    56 1   
    62    31    57 1   
@<TRIPOS>SUBSTRUCTURE
     1 XNN         1 TEMP              0 ****  ****    0 ROOT
