@<TRIPOS>MOLECULE
XNO
   42    43     1     0     0
SMALL
No Charge or Current Charge


@<TRIPOS>ATOM
      1 N1         117.4950    97.3380    86.8420 nc         1 XNO      -0.523100
      2 C7         117.9990    96.3010    86.1990 cd         1 XNO       0.325800
      3 C8         117.2340    95.6880    85.1100 cf         1 XNO      -0.173000
      4 N2         116.5800    95.8690    82.6770 n3         1 XNO      -0.717600
      5 C9         116.9750    94.3570    85.0720 c2         1 XNO      -0.167200
      6 C1         119.9550    95.8480    80.7790 c3         1 XNO      -0.075400
      7 C5         121.3870    95.1060    85.6910 c3         1 XNO       0.174600
      8 C6         119.3150    95.9520    86.6360 cd         1 XNO       0.505300
      9 C4         121.4150    96.0390    84.4540 c3         1 XNO      -0.106400
     10 C3         120.6840    95.4620    83.2170 c3         1 XNO      -0.074400
     11 C2         120.6460    96.4420    82.0250 c3         1 XNO      -0.075400
     12 N          119.8350    96.6650    87.6080 nc         1 XNO      -0.616100
     13 C          119.8570    96.8460    79.6090 c3         1 XNO      -0.088100
     14 O          120.0150    94.9070    86.0890 os         1 XNO      -0.449300
     15 C10        116.2850    93.7000    83.8850 c6         1 XNO      -0.043200
     16 C11        115.6520    94.7360    82.9220 c6         1 XNO       0.163800
     17 C12        116.8630    96.6100    83.9360 c6         1 XNO       0.207000
     18 C13        116.1340    96.7600    81.5860 c3         1 XNO       0.153100
     19 S          118.6550    97.8070    87.9690 ss         1 XNO       0.429200
     20 H3         117.2880    93.7030    85.8880 ha         1 XNO       0.191000
     21 H4         120.5070    94.9600    80.4460 hc         1 XNO       0.037700
     22 H5         118.9460    95.5140    81.0460 hc         1 XNO       0.037700
     23 H6         121.8460    94.1450    85.4230 h1         1 XNO       0.065700
     24 H7         121.9810    95.5410    86.5050 h1         1 XNO       0.065700
     25 H8         120.9830    97.0110    84.7190 hc         1 XNO       0.057200
     26 H9         122.4630    96.2290    84.1900 hc         1 XNO       0.057200
     27 H10        121.1800    94.5330    82.9090 hc         1 XNO       0.043200
     28 H11        119.6540    95.1970    83.4860 hc         1 XNO       0.043200
     29 H12        121.6700    96.7370    81.7640 hc         1 XNO       0.037700
     30 H13        120.1170    97.3540    82.3300 hc         1 XNO       0.037700
     31 H15        119.3630    96.3780    78.7490 hc         1 XNO       0.031700
     32 H16        119.2750    97.7280    79.9000 hc         1 XNO       0.031700
     33 H17        120.8550    97.1750    79.2950 hc         1 XNO       0.031700
     34 H18        117.0240    93.1030    83.3330 hc         1 XNO       0.057200
     35 H19        115.5150    92.9990    84.2330 hc         1 XNO       0.057200
     36 H20        114.7130    95.1070    83.3580 h1         1 XNO       0.033700
     37 H21        115.3950    94.2310    81.9790 h1         1 XNO       0.033700
     38 H22        115.9810    97.1980    84.2310 h1         1 XNO       0.051700
     39 H23        117.6810    97.3280    83.7710 h1         1 XNO       0.051700
     40 H24        116.8770    97.5470    81.4000 h1         1 XNO       0.032033
     41 H25        116.0010    96.1950    80.6540 h1         1 XNO       0.032033
     42 H26        115.1780    97.2410    81.8370 h1         1 XNO       0.032033
@<TRIPOS>BOND
     1     1     2 2   
     2     1    19 1   
     3     2     3 1   
     4     2     8 1   
     5     3     5 2   
     6     3    17 1   
     7     4    16 1   
     8     4    17 1   
     9     4    18 1   
    10     5    15 1   
    11     5    20 1   
    12     6    11 1   
    13     6    13 1   
    14     6    21 1   
    15     6    22 1   
    16     7     9 1   
    17     7    14 1   
    18     7    23 1   
    19     7    24 1   
    20     8    12 2   
    21     8    14 1   
    22     9    10 1   
    23     9    25 1   
    24     9    26 1   
    25    10    11 1   
    26    10    27 1   
    27    10    28 1   
    28    11    29 1   
    29    11    30 1   
    30    12    19 1   
    31    13    31 1   
    32    13    32 1   
    33    13    33 1   
    34    15    16 1   
    35    15    34 1   
    36    15    35 1   
    37    16    36 1   
    38    16    37 1   
    39    17    38 1   
    40    17    39 1   
    41    18    40 1   
    42    18    41 1   
    43    18    42 1   
@<TRIPOS>SUBSTRUCTURE
     1 XNO         1 TEMP              0 ****  ****    0 ROOT
