@<TRIPOS>MOLECULE
XNO
   42    43     1     0     0
SMALL
abcg2


@<TRIPOS>ATOM
      1 N1         117.2000    97.8360    85.8360 nc         1 XNO      -0.523100
      2 C7         117.6020    96.6750    85.3460 cd         1 XNO       0.325800
      3 C8         116.6680    95.8150    84.6230 cf         1 XNO      -0.173000
      4 N2         114.5080    95.6450    83.4390 n3         1 XNO      -0.717600
      5 C9         116.9910    94.6020    84.1520 c2         1 XNO      -0.167200
      6 C1         121.9590    96.0920    80.4890 c3         1 XNO      -0.075400
      7 C5         121.0680    95.2430    85.4400 c3         1 XNO       0.174600
      8 C6         119.0080    96.4390    85.6450 cd         1 XNO       0.505300
      9 C4         121.8180    96.0540    84.3990 c3         1 XNO      -0.106400
     10 C3         121.4970    95.6560    82.9600 c3         1 XNO      -0.074400
     11 C2         122.2860    96.4640    81.9330 c3         1 XNO      -0.075400
     12 N          119.5880    97.4020    86.3180 nc         1 XNO      -0.616100
     13 C          122.7510    96.9080    79.4690 c3         1 XNO      -0.088100
     14 O          119.6290    95.3260    85.2620 os         1 XNO      -0.449300
     15 C10        115.9980    93.7150    83.4710 c6         1 XNO      -0.043200
     16 C11        114.5710    94.2060    83.6680 c6         1 XNO       0.163800
     17 C12        115.2750    96.3690    84.4450 c6         1 XNO       0.207000
     18 C13        113.1390    96.1330    83.3940 c3         1 XNO       0.153100
     19 S          118.4560    98.5680    86.5910 ss         1 XNO       0.429200
     20 H3         117.9970    94.2270    84.2650 ha         1 XNO       0.191000
     21 H4         122.1570    95.0250    80.3390 hc         1 XNO       0.037700
     22 H5         120.8860    96.2320    80.3170 hc         1 XNO       0.037700
     23 H6         121.2770    94.1800    85.3340 h1         1 XNO       0.065700
     24 H7         121.3160    95.5600    86.4520 h1         1 XNO       0.065700
     25 H8         121.6150    97.1170    84.5460 hc         1 XNO       0.057200
     26 H9         122.8860    95.9090    84.5940 hc         1 XNO       0.057200
     27 H10        121.7030    94.5890    82.8240 hc         1 XNO       0.043200
     28 H11        120.4260    95.7900    82.7770 hc         1 XNO       0.043200
     29 H12        123.3590    96.3250    82.1080 hc         1 XNO       0.037700
     30 H13        122.0860    97.5310    82.0840 hc         1 XNO       0.037700
     31 H15        122.4980    96.6230    78.4450 hc         1 XNO       0.031700
     32 H16        122.5460    97.9760    79.5790 hc         1 XNO       0.031700
     33 H17        123.8260    96.7610    79.6010 hc         1 XNO       0.031700
     34 H18        116.2340    93.6630    82.4010 hc         1 XNO       0.057200
     35 H19        116.1010    92.6940    83.8520 hc         1 XNO       0.057200
     36 H20        114.2250    93.9540    84.6860 h1         1 XNO       0.033700
     37 H21        113.8980    93.7120    82.9660 h1         1 XNO       0.033700
     38 H22        114.7610    96.3590    85.4250 h1         1 XNO       0.051700
     39 H23        115.3350    97.4170    84.1470 h1         1 XNO       0.051700
     40 H24        113.1360    97.2040    83.1820 h1         1 XNO       0.032033
     41 H25        112.5910    95.6200    82.6020 h1         1 XNO       0.032033
     42 H26        112.6030    95.9720    84.3450 h1         1 XNO       0.032033
@<TRIPOS>BOND
     1     1     2 2   
     2     1    19 1   
     3     2     3 1   
     4     2     8 1   
     5     3     5 2   
     6     3    17 1   
     7     4    16 1   
     8     4    17 1   
     9     4    18 1   
    10     5    15 1   
    11     5    20 1   
    12     6    11 1   
    13     6    13 1   
    14     6    21 1   
    15     6    22 1   
    16     7     9 1   
    17     7    14 1   
    18     7    23 1   
    19     7    24 1   
    20     8    12 2   
    21     8    14 1   
    22     9    10 1   
    23     9    25 1   
    24     9    26 1   
    25    10    11 1   
    26    10    27 1   
    27    10    28 1   
    28    11    29 1   
    29    11    30 1   
    30    12    19 1   
    31    13    31 1   
    32    13    32 1   
    33    13    33 1   
    34    15    16 1   
    35    15    34 1   
    36    15    35 1   
    37    16    36 1   
    38    16    37 1   
    39    17    38 1   
    40    17    39 1   
    41    18    40 1   
    42    18    41 1   
    43    18    42 1   
@<TRIPOS>SUBSTRUCTURE
     1 XNO         1 TEMP              0 ****  ****    0 ROOT
