@<TRIPOS>MOLECULE
XNR
   65    68     1     0     0
SMALL
No Charge or Current Charge


@<TRIPOS>ATOM
      1 C1         -13.4480   -54.6070   -22.9860 ca         1 XNR       0.257000
      2 C2         -13.4040   -53.6260   -21.9840 ca         1 XNR      -0.146000
      3 C3         -13.1340   -53.9810   -20.6600 ca         1 XNR       0.173000
      4 C4         -12.9250   -55.3190   -20.3150 ca         1 XNR      -0.137000
      5 C5         -12.9790   -56.3270   -21.2980 ca         1 XNR      -0.060300
      6 C6         -13.2400   -55.9750   -22.6510 ca         1 XNR      -0.036300
      7 C7         -13.3130   -57.0750   -23.7200 c3         1 XNR      -0.042800
      8 C8         -12.7760   -57.7810   -20.8590 c3         1 XNR       0.209100
      9 F9         -13.0850   -53.0260   -19.7060 f          1 XNR      -0.175000
     10 N10        -13.7490   -54.1970   -24.2840 nu         1 XNR      -0.919100
     11 N11        -11.4310   -58.3150   -21.1720 n3         1 XNR      -0.713600
     12 C12        -11.3520   -59.7910   -20.9950 c6         1 XNR       0.142800
     13 C13         -9.9580   -60.3570   -21.3820 c6         1 XNR       0.106000
     14 N14         -8.8440   -59.6630   -20.6580 n          1 XNR      -0.418800
     15 C15         -8.9270   -58.1760   -20.7850 c6         1 XNR       0.107700
     16 C16        -10.3420   -57.6430   -20.4040 c6         1 XNR       0.143800
     17 C17         -8.4980   -57.6920   -22.1950 c3         1 XNR      -0.097100
     18 C18         -8.1660   -60.2510   -19.5620 c          1 XNR       0.608100
     19 O19         -7.8470   -59.5980   -18.5750 o          1 XNR      -0.610100
     20 S20        -12.6400   -53.6030   -25.3910 sy         1 XNR       1.177600
     21 C21        -11.4120   -54.8920   -25.6080 ca         1 XNR      -0.299500
     22 O22        -13.4460   -53.4620   -26.6050 o          1 XNR      -0.545500
     23 C23        -10.2050   -54.8470   -24.8820 ca         1 XNR       0.019000
     24 C24         -9.2390   -55.8480   -25.0730 ca         1 XNR      -0.173000
     25 C25         -9.4850   -56.8990   -25.9670 ca         1 XNR       0.221000
     26 C26        -10.6870   -56.9520   -26.6880 ca         1 XNR      -0.173000
     27 C27        -11.6520   -55.9440   -26.5160 ca         1 XNR       0.019000
     28 C28         -7.8360   -61.7640   -19.7950 c5         1 XNR      -0.143700
     29 C29         -8.7980   -62.6370   -18.9160 c5         1 XNR      -0.069900
     30 C30         -7.9310   -63.0040   -17.6870 c5         1 XNR      -0.079900
     31 C31         -6.6060   -63.3710   -18.3920 c5         1 XNR      -0.079900
     32 C32         -6.3920   -62.1200   -19.2820 c5         1 XNR      -0.069900
     33 F33         -8.5570   -57.8650   -26.1390 f          1 XNR      -0.173000
     34 O34        -12.0580   -52.4490   -24.7050 o          1 XNR      -0.545500
     35 H1         -13.5690   -52.5820   -22.2300 ha         1 XNR       0.143000
     36 H2         -12.7250   -55.5740   -19.2770 ha         1 XNR       0.135000
     37 H3         -12.3250   -57.5180   -23.8890 hc         1 XNR       0.052033
     38 H4         -13.9960   -57.8780   -23.4230 hc         1 XNR       0.052033
     39 H5         -13.6790   -56.7140   -24.6860 hc         1 XNR       0.052033
     40 H6         -12.9600   -57.8580   -19.7790 h1         1 XNR       0.042700
     41 H7         -13.5460   -58.4020   -21.3350 h1         1 XNR       0.042700
     42 H8         -14.4370   -53.4570   -24.3170 hn         1 XNR       0.498000
     43 H10        -11.5580   -60.0560   -19.9480 h1         1 XNR       0.039700
     44 H11        -12.1150   -60.2890   -21.6110 h1         1 XNR       0.039700
     45 H12         -9.8100   -60.2400   -22.4650 h1         1 XNR       0.056200
     46 H13         -9.9720   -61.4350   -21.1800 h1         1 XNR       0.056200
     47 H14         -8.2140   -57.7150   -20.0860 h1         1 XNR       0.090700
     48 H15        -10.3630   -56.5560   -20.5710 h1         1 XNR       0.046200
     49 H16        -10.4930   -57.8020   -19.3260 h1         1 XNR       0.046200
     50 H17         -8.4660   -56.5970   -22.2330 hc         1 XNR       0.042033
     51 H18         -7.4980   -58.0620   -22.4500 hc         1 XNR       0.042033
     52 H19         -9.1910   -58.0330   -22.9720 hc         1 XNR       0.042033
     53 H20        -10.0080   -54.0380   -24.1790 ha         1 XNR       0.141500
     54 H21         -8.2990   -55.8100   -24.5310 ha         1 XNR       0.140000
     55 H22        -10.8680   -57.7690   -27.3810 ha         1 XNR       0.140000
     56 H23        -12.5820   -55.9880   -27.0810 ha         1 XNR       0.141500
     57 H24         -7.9580   -62.0310   -20.8490 hc         1 XNR       0.056700
     58 H25         -9.7180   -62.1110   -18.6330 hc         1 XNR       0.051700
     59 H26         -9.1060   -63.5400   -19.4560 hc         1 XNR       0.051700
     60 H27         -8.3480   -63.8400   -17.1160 hc         1 XNR       0.045950
     61 H28         -7.8110   -62.1580   -16.9990 hc         1 XNR       0.045950
     62 H29         -6.7020   -64.2850   -18.9900 hc         1 XNR       0.045950
     63 H30         -5.7830   -63.5260   -17.6850 hc         1 XNR       0.045950
     64 H31         -5.7020   -62.3220   -20.1090 hc         1 XNR       0.051700
     65 H32         -5.9420   -61.3090   -18.6970 hc         1 XNR       0.051700
@<TRIPOS>BOND
     1     1     2 ar  
     2     1     6 ar  
     3     1    10 1   
     4     2     3 ar  
     5     2    35 1   
     6     3     4 ar  
     7     3     9 1   
     8     4     5 ar  
     9     4    36 1   
    10     5     6 ar  
    11     5     8 1   
    12     6     7 1   
    13     7    37 1   
    14     7    38 1   
    15     7    39 1   
    16     8    11 1   
    17     8    40 1   
    18     8    41 1   
    19    10    20 1   
    20    10    42 1   
    21    11    12 1   
    22    11    16 1   
    23    12    13 1   
    24    12    43 1   
    25    12    44 1   
    26    13    14 1   
    27    13    45 1   
    28    13    46 1   
    29    14    15 1   
    30    14    18 1   
    31    15    16 1   
    32    15    17 1   
    33    15    47 1   
    34    16    48 1   
    35    16    49 1   
    36    17    50 1   
    37    17    51 1   
    38    17    52 1   
    39    18    19 2   
    40    18    28 1   
    41    20    21 1   
    42    20    22 2   
    43    20    34 2   
    44    21    23 ar  
    45    21    27 ar  
    46    23    24 ar  
    47    23    53 1   
    48    24    25 ar  
    49    24    54 1   
    50    25    26 ar  
    51    25    33 1   
    52    26    27 ar  
    53    26    55 1   
    54    27    56 1   
    55    28    29 1   
    56    28    32 1   
    57    28    57 1   
    58    29    30 1   
    59    29    58 1   
    60    29    59 1   
    61    30    31 1   
    62    30    60 1   
    63    30    61 1   
    64    31    32 1   
    65    31    62 1   
    66    31    63 1   
    67    32    64 1   
    68    32    65 1   
@<TRIPOS>SUBSTRUCTURE
     1 XNR         1 TEMP              0 ****  ****    0 ROOT
