@<TRIPOS>MOLECULE
XNR
   65    68     1     0     0
SMALL
abcg2


@<TRIPOS>ATOM
      1 C1         -13.3990   -54.8120   -22.8480 ca         1 XNR       0.257000
      2 C2         -13.5690   -53.8760   -21.8270 ca         1 XNR      -0.146000
      3 C3         -13.4460   -54.3030   -20.5250 ca         1 XNR       0.173000
      4 C4         -13.1540   -55.6140   -20.2100 ca         1 XNR      -0.137000
      5 C5         -12.9830   -56.5440   -21.2310 ca         1 XNR      -0.060300
      6 C6         -13.1040   -56.1550   -22.5800 ca         1 XNR      -0.036300
      7 C7         -12.9620   -57.1570   -23.6910 c3         1 XNR      -0.042800
      8 C8         -12.6960   -57.9750   -20.8460 c3         1 XNR       0.209100
      9 F9         -13.6130   -53.4070   -19.5180 f          1 XNR      -0.175000
     10 N10        -13.5790   -54.3710   -24.2040 nu         1 XNR      -0.919100
     11 N11        -11.3420   -58.4040   -21.1880 n3         1 XNR      -0.713600
     12 C12        -11.1910   -59.8400   -20.9860 c6         1 XNR       0.142800
     13 C13         -9.8030   -60.3020   -21.4040 c6         1 XNR       0.106000
     14 N14         -8.7740   -59.5400   -20.7010 n          1 XNR      -0.418800
     15 C15         -8.9150   -58.0820   -20.8340 c6         1 XNR       0.107700
     16 C16        -10.3310   -57.6810   -20.4230 c6         1 XNR       0.143800
     17 C17         -8.5410   -57.6050   -22.2350 c3         1 XNR      -0.097100
     18 C18         -7.8090   -60.0590   -19.9020 c          1 XNR       0.608100
     19 O19         -6.9950   -59.3310   -19.3230 o          1 XNR      -0.610100
     20 S20        -12.3640   -53.5770   -25.0030 sy         1 XNR       1.177600
     21 C21        -11.3230   -54.8760   -25.5880 ca         1 XNR      -0.299500
     22 O22        -13.0190   -52.9400   -26.1230 o          1 XNR      -0.545500
     23 C23        -10.1170   -55.1320   -24.9460 ca         1 XNR       0.019000
     24 C24         -9.3030   -56.1580   -25.4070 ca         1 XNR      -0.173000
     25 C25         -9.7310   -56.8980   -26.4930 ca         1 XNR       0.221000
     26 C26        -10.9320   -56.6610   -27.1440 ca         1 XNR      -0.173000
     27 C27        -11.7380   -55.6340   -26.6820 ca         1 XNR       0.019000
     28 C28         -7.7870   -61.5710   -19.7090 c5         1 XNR      -0.143700
     29 C29         -8.9270   -62.0530   -18.7460 c5         1 XNR      -0.069900
     30 C30         -8.2230   -62.8460   -17.6310 c5         1 XNR      -0.079900
     31 C31         -6.9140   -63.3160   -18.2710 c5         1 XNR      -0.079900
     32 C32         -6.4810   -62.0970   -19.0900 c5         1 XNR      -0.069900
     33 F33         -8.9420   -57.8970   -26.9430 f          1 XNR      -0.173000
     34 O34        -11.5770   -52.7660   -24.1020 o          1 XNR      -0.545500
     35 H1         -13.7930   -52.8440   -22.0560 ha         1 XNR       0.143000
     36 H2         -13.0650   -55.9120   -19.1730 ha         1 XNR       0.135000
     37 H3         -11.9120   -57.3440   -23.9210 hc         1 XNR       0.052033
     38 H4         -13.4020   -58.1140   -23.4110 hc         1 XNR       0.052033
     39 H5         -13.4470   -56.8010   -24.5950 hc         1 XNR       0.052033
     40 H6         -12.8830   -58.0940   -19.7680 h1         1 XNR       0.042700
     41 H7         -13.3900   -58.6410   -21.3630 h1         1 XNR       0.042700
     42 H8         -14.4590   -53.9010   -24.3900 hn         1 XNR       0.498000
     43 H10        -11.3570   -60.1120   -19.9290 h1         1 XNR       0.039700
     44 H11        -11.9370   -60.3620   -21.5880 h1         1 XNR       0.039700
     45 H12         -9.6810   -60.1600   -22.4810 h1         1 XNR       0.056200
     46 H13         -9.7000   -61.3600   -21.1980 h1         1 XNR       0.056200
     47 H14         -8.2260   -57.6450   -20.1170 h1         1 XNR       0.090700
     48 H15        -10.4560   -56.6110   -20.5870 h1         1 XNR       0.046200
     49 H16        -10.4540   -57.8700   -19.3420 h1         1 XNR       0.046200
     50 H17         -8.5950   -56.5150   -22.2780 hc         1 XNR       0.042033
     51 H18         -7.5230   -57.9100   -22.4820 hc         1 XNR       0.042033
     52 H19         -9.2160   -58.0000   -22.9920 hc         1 XNR       0.042033
     53 H20         -9.8160   -54.5380   -24.0960 ha         1 XNR       0.141500
     54 H21         -8.3580   -56.3830   -24.9340 ha         1 XNR       0.140000
     55 H22        -11.2210   -57.2690   -27.9900 ha         1 XNR       0.140000
     56 H23        -12.6810   -55.4260   -27.1670 ha         1 XNR       0.141500
     57 H24         -7.9240   -62.0460   -20.6800 hc         1 XNR       0.056700
     58 H25         -9.5050   -61.2160   -18.3520 hc         1 XNR       0.051700
     59 H26         -9.6230   -62.6910   -19.2920 hc         1 XNR       0.051700
     60 H27         -8.8380   -63.6630   -17.2520 hc         1 XNR       0.045950
     61 H28         -7.9970   -62.1850   -16.7890 hc         1 XNR       0.045950
     62 H29         -7.1040   -64.1700   -18.9290 hc         1 XNR       0.045950
     63 H30         -6.1640   -63.6220   -17.5390 hc         1 XNR       0.045950
     64 H31         -5.7330   -62.3280   -19.8500 hc         1 XNR       0.051700
     65 H32         -6.0610   -61.3390   -18.4290 hc         1 XNR       0.051700
@<TRIPOS>BOND
     1     1     2 ar  
     2     1     6 ar  
     3     1    10 1   
     4     2     3 ar  
     5     2    35 1   
     6     3     4 ar  
     7     3     9 1   
     8     4     5 ar  
     9     4    36 1   
    10     5     6 ar  
    11     5     8 1   
    12     6     7 1   
    13     7    37 1   
    14     7    38 1   
    15     7    39 1   
    16     8    11 1   
    17     8    40 1   
    18     8    41 1   
    19    10    20 1   
    20    10    42 1   
    21    11    12 1   
    22    11    16 1   
    23    12    13 1   
    24    12    43 1   
    25    12    44 1   
    26    13    14 1   
    27    13    45 1   
    28    13    46 1   
    29    14    15 1   
    30    14    18 1   
    31    15    16 1   
    32    15    17 1   
    33    15    47 1   
    34    16    48 1   
    35    16    49 1   
    36    17    50 1   
    37    17    51 1   
    38    17    52 1   
    39    18    19 2   
    40    18    28 1   
    41    20    21 1   
    42    20    22 2   
    43    20    34 2   
    44    21    23 ar  
    45    21    27 ar  
    46    23    24 ar  
    47    23    53 1   
    48    24    25 ar  
    49    24    54 1   
    50    25    26 ar  
    51    25    33 1   
    52    26    27 ar  
    53    26    55 1   
    54    27    56 1   
    55    28    29 1   
    56    28    32 1   
    57    28    57 1   
    58    29    30 1   
    59    29    58 1   
    60    29    59 1   
    61    30    31 1   
    62    30    60 1   
    63    30    61 1   
    64    31    32 1   
    65    31    62 1   
    66    31    63 1   
    67    32    64 1   
    68    32    65 1   
@<TRIPOS>SUBSTRUCTURE
     1 XNR         1 TEMP              0 ****  ****    0 ROOT
