@<TRIPOS>MOLECULE
XNS
   54    54     1     0     0
SMALL
No Charge or Current Charge


@<TRIPOS>ATOM
      1 C14         -7.2890     0.0550    -1.1640 c3         1 XNS      -0.138400
      2 O7          -8.9840    -1.6010    -0.6160 o          1 XNS      -0.487000
      3 C15         -8.6050    -0.4390    -0.5570 c          1 XNS       0.590100
      4 O8          -9.2770     0.5660     0.0880 os         1 XNS      -0.448100
      5 C16        -10.5280     0.2430     0.7250 c3         1 XNS       0.152900
      6 C13         -6.1020    -0.1770    -0.1990 c3         1 XNS      -0.068400
      7 C12         -4.7540     0.3150    -0.7710 c3         1 XNS      -0.076400
      8 C11         -3.5690     0.0840     0.1910 c3         1 XNS      -0.074400
      9 C10         -2.2210     0.5760    -0.3810 c3         1 XNS      -0.074400
     10 C9          -1.0360     0.3450     0.5820 c3         1 XNS      -0.074400
     11 C8           0.3120     0.8380     0.0100 c3         1 XNS      -0.082400
     12 C7           1.4930     0.6050     0.9710 c3         1 XNS       0.165600
     13 O1           2.6780     1.1000     0.3280 os         1 XNS      -0.493000
     14 C1           3.9060     0.9790     1.0720 c6         1 XNS       0.355300
     15 C2           5.0840     1.7230     0.3430 c6         1 XNS       0.122300
     16 O2           6.3050     1.7500     1.1310 oh         1 XNS      -0.691000
     17 C3           5.3700     1.0070    -1.0100 c6         1 XNS       0.143300
     18 O3           6.5010     1.6210    -1.6560 oh         1 XNS      -0.653000
     19 C4           5.6410    -0.5130    -0.7830 c6         1 XNS       0.147300
     20 O4           5.8620    -1.1630    -2.0520 oh         1 XNS      -0.724000
     21 C5           4.4530    -1.1490     0.0050 c6         1 XNS       0.172300
     22 O5           4.2240    -0.4210     1.2460 os         1 XNS      -0.456000
     23 C6           4.7110    -2.6530     0.3560 c3         1 XNS       0.169600
     24 O6           3.6470    -3.2570     1.1220 oh         1 XNS      -0.715000
     25 H141        -7.1010    -0.4830    -2.1000 hc         1 XNS       0.070700
     26 H142        -7.3610     1.1340    -1.3470 hc         1 XNS       0.070700
     27 H131        -6.3020     0.3390     0.7490 hc         1 XNS       0.054200
     28 H132        -6.0270    -1.2480     0.0300 hc         1 XNS       0.054200
     29 H161       -10.9560     1.1350     1.1990 h1         1 XNS       0.048033
     30 H162       -11.2540    -0.1350    -0.0060 h1         1 XNS       0.048033
     31 H163       -10.3860    -0.5200     1.5020 h1         1 XNS       0.048033
     32 H121        -4.5550    -0.2010    -1.7190 hc         1 XNS       0.037200
     33 H122        -4.8290     1.3860    -0.9990 hc         1 XNS       0.037200
     34 H111        -3.7680     0.6000     1.1390 hc         1 XNS       0.040700
     35 H112        -3.4930    -0.9870     0.4190 hc         1 XNS       0.040700
     36 H101        -2.0220     0.0600    -1.3280 hc         1 XNS       0.037700
     37 H102        -2.2970     1.6470    -0.6090 hc         1 XNS       0.037700
     38 H91C        -1.2350     0.8610     1.5300 hc         1 XNS       0.041200
     39 H92C        -0.9600    -0.7260     0.8090 hc         1 XNS       0.041200
     40 H81C         0.5150     0.3200    -0.9360 hc         1 XNS       0.048700
     41 H82C         0.2400     1.9090    -0.2150 hc         1 XNS       0.048700
     42 H71C         1.3110     1.1380     1.9150 h1         1 XNS       0.037200
     43 H72C         1.5810    -0.4680     1.1880 h1         1 XNS       0.037200
     44 H1           3.7640     1.4400     2.0620 h2         1 XNS       0.064700
     45 H2           4.7560     2.7510     0.1310 h1         1 XNS       0.047700
     46 HA           6.1040     2.2190     1.9740 ho         1 XNS       0.503000
     47 H3           4.4780     1.1070    -1.6470 h1         1 XNS       0.060700
     48 HB           7.0680     1.9270    -0.9100 ho         1 XNS       0.448000
     49 H4           6.5420    -0.6100    -0.1590 h1         1 XNS       0.068700
     50 HC           6.3850    -0.5150    -2.5840 ho         1 XNS       0.522000
     51 H5           3.5440    -1.1010    -0.6120 h1         1 XNS       0.066700
     52 H61C         4.8520    -3.2050    -0.5830 h1         1 XNS       0.036200
     53 H62C         5.6570    -2.7140     0.9120 h1         1 XNS       0.036200
     54 H6           3.9370    -4.1710     1.3460 ho         1 XNS       0.502000
@<TRIPOS>BOND
     1     1     3 1   
     2     1     6 1   
     3     1    25 1   
     4     1    26 1   
     5     2     3 2   
     6     3     4 1   
     7     4     5 1   
     8     5    29 1   
     9     5    30 1   
    10     5    31 1   
    11     6     7 1   
    12     6    27 1   
    13     6    28 1   
    14     7     8 1   
    15     7    32 1   
    16     7    33 1   
    17     8     9 1   
    18     8    34 1   
    19     8    35 1   
    20     9    10 1   
    21     9    36 1   
    22     9    37 1   
    23    10    11 1   
    24    10    38 1   
    25    10    39 1   
    26    11    12 1   
    27    11    40 1   
    28    11    41 1   
    29    12    13 1   
    30    12    42 1   
    31    12    43 1   
    32    13    14 1   
    33    14    15 1   
    34    14    22 1   
    35    14    44 1   
    36    15    16 1   
    37    15    17 1   
    38    15    45 1   
    39    16    46 1   
    40    17    18 1   
    41    17    19 1   
    42    17    47 1   
    43    18    48 1   
    44    19    20 1   
    45    19    21 1   
    46    19    49 1   
    47    20    50 1   
    48    21    22 1   
    49    21    23 1   
    50    21    51 1   
    51    23    24 1   
    52    23    52 1   
    53    23    53 1   
    54    24    54 1   
@<TRIPOS>SUBSTRUCTURE
     1 XNS         1 TEMP              0 ****  ****    0 ROOT
