@<TRIPOS>MOLECULE
XNS
   54    54     1     0     0
SMALL
abcg2


@<TRIPOS>ATOM
      1 C14         -7.2790     0.5210    -0.4970 c3         1 XNS      -0.138400
      2 O7          -8.6720    -0.9220     0.8410 o          1 XNS      -0.487000
      3 C15         -8.5730    -0.0610     0.0020 c          1 XNS       0.590100
      4 O8          -9.6210     0.4930    -0.5970 os         1 XNS      -0.448100
      5 C16        -10.9180     0.0390    -0.2140 c3         1 XNS       0.152900
      6 C13         -6.0450    -0.0610     0.1730 c3         1 XNS      -0.068400
      7 C12         -4.7630     0.5700    -0.3540 c3         1 XNS      -0.076400
      8 C11         -3.5110     0.0170     0.3140 c3         1 XNS      -0.074400
      9 C10         -2.2270     0.6530    -0.2020 c3         1 XNS      -0.074400
     10 C9          -0.9760     0.1190     0.4830 c3         1 XNS      -0.074400
     11 C8           0.3030     0.7670    -0.0330 c3         1 XNS      -0.082400
     12 C7           1.5260     0.2540     0.6980 c3         1 XNS       0.165600
     13 O1           2.6810     0.8750     0.1590 os         1 XNS      -0.493000
     14 C1           3.8210     0.7840     0.9490 c6         1 XNS       0.355300
     15 C2           4.9110     1.6360     0.2910 c6         1 XNS       0.122300
     16 O2           6.0180     1.7620     1.1470 oh         1 XNS      -0.691000
     17 C3           5.3710     0.9550    -0.9950 c6         1 XNS       0.143300
     18 O3           6.4610     1.6120    -1.5970 oh         1 XNS      -0.653000
     19 C4           5.7970    -0.4830    -0.7210 c6         1 XNS       0.147300
     20 O4           6.0800    -1.1650    -1.9200 oh         1 XNS      -0.724000
     21 C5           4.6600    -1.2280    -0.0210 c6         1 XNS       0.172300
     22 O5           4.2500    -0.5320     1.1430 os         1 XNS      -0.456000
     23 C6           5.0850    -2.6140     0.4170 c3         1 XNS       0.169600
     24 O6           3.9710    -3.2800     0.9630 oh         1 XNS      -0.715000
     25 H141        -7.2330     0.3720    -1.5810 hc         1 XNS       0.070700
     26 H142        -7.3150     1.6060    -0.3550 hc         1 XNS       0.070700
     27 H131        -6.1050     0.0900     1.2540 hc         1 XNS       0.054200
     28 H132        -6.0100    -1.1420     0.0150 hc         1 XNS       0.054200
     29 H161       -11.6240     0.6110    -0.8090 h1         1 XNS       0.048033
     30 H162       -11.0490    -1.0230    -0.4240 h1         1 XNS       0.048033
     31 H163       -11.1080     0.2200     0.8440 h1         1 XNS       0.048033
     32 H121        -4.6970     0.4160    -1.4370 hc         1 XNS       0.037200
     33 H122        -4.8030     1.6550    -0.2060 hc         1 XNS       0.037200
     34 H111        -3.5810     0.1690     1.3970 hc         1 XNS       0.040700
     35 H112        -3.4660    -1.0670     0.1640 hc         1 XNS       0.040700
     36 H101        -2.1490     0.4910    -1.2830 hc         1 XNS       0.037700
     37 H102        -2.2800     1.7390    -0.0630 hc         1 XNS       0.037700
     38 H91C        -1.0590     0.2830     1.5630 hc         1 XNS       0.041200
     39 H92C        -0.9200    -0.9660     0.3440 hc         1 XNS       0.041200
     40 H81C         0.4060     0.5700    -1.1050 hc         1 XNS       0.048700
     41 H82C         0.2380     1.8530     0.0850 hc         1 XNS       0.048700
     42 H71C         1.4410     0.4790     1.7700 h1         1 XNS       0.037200
     43 H72C         1.5930    -0.8360     0.6030 h1         1 XNS       0.037200
     44 H1           3.6130     1.1600     1.9630 h2         1 XNS       0.064700
     45 H2           4.4810     2.6180     0.0470 h1         1 XNS       0.047700
     46 HA           5.7540     2.2770     1.9160 ho         1 XNS       0.503000
     47 H3           4.5120     0.9210    -1.6780 h1         1 XNS       0.060700
     48 HB           6.1410     2.4040    -2.0380 ho         1 XNS       0.448000
     49 H4           6.6770    -0.4760    -0.0590 h1         1 XNS       0.068700
     50 HC           6.7440    -0.6580    -2.3980 ho         1 XNS       0.522000
     51 H5           3.8250    -1.3230    -0.7310 h1         1 XNS       0.066700
     52 H61C         5.4890    -3.1450    -0.4510 h1         1 XNS       0.036200
     53 H62C         5.9020    -2.5190     1.1460 h1         1 XNS       0.036200
     54 H6           4.2480    -4.1670     1.2080 ho         1 XNS       0.502000
@<TRIPOS>BOND
     1     1     3 1   
     2     1     6 1   
     3     1    25 1   
     4     1    26 1   
     5     2     3 2   
     6     3     4 1   
     7     4     5 1   
     8     5    29 1   
     9     5    30 1   
    10     5    31 1   
    11     6     7 1   
    12     6    27 1   
    13     6    28 1   
    14     7     8 1   
    15     7    32 1   
    16     7    33 1   
    17     8     9 1   
    18     8    34 1   
    19     8    35 1   
    20     9    10 1   
    21     9    36 1   
    22     9    37 1   
    23    10    11 1   
    24    10    38 1   
    25    10    39 1   
    26    11    12 1   
    27    11    40 1   
    28    11    41 1   
    29    12    13 1   
    30    12    42 1   
    31    12    43 1   
    32    13    14 1   
    33    14    15 1   
    34    14    22 1   
    35    14    44 1   
    36    15    16 1   
    37    15    17 1   
    38    15    45 1   
    39    16    46 1   
    40    17    18 1   
    41    17    19 1   
    42    17    47 1   
    43    18    48 1   
    44    19    20 1   
    45    19    21 1   
    46    19    49 1   
    47    20    50 1   
    48    21    22 1   
    49    21    23 1   
    50    21    51 1   
    51    23    24 1   
    52    23    52 1   
    53    23    53 1   
    54    24    54 1   
@<TRIPOS>SUBSTRUCTURE
     1 XNS         1 TEMP              0 ****  ****    0 ROOT
