@<TRIPOS>MOLECULE
XNT
   62    65     1     0     0
SMALL
abcg2


@<TRIPOS>ATOM
      1 C01        -22.0160   -11.9040    15.8270 c3         1 XNT      -0.085100
      2 C02        -23.2460   -12.1140    14.9610 c3         1 XNT       0.232600
      3 C04        -25.4150   -13.0750    15.2880 ca         1 XNT       0.152100
      4 C05        -25.9900   -12.3930    14.2200 ca         1 XNT      -0.167500
      5 C06        -27.3250   -12.6180    13.8980 ca         1 XNT      -0.073000
      6 C07        -28.1140   -13.5150    14.6060 ca         1 XNT      -0.132300
      7 C08        -29.5660   -13.7210    14.2720 c3         1 XNT      -0.021100
      8 C09        -30.5010   -12.9720    15.2200 c3         1 XNT       0.154800
      9 C11        -27.5160   -14.1940    15.6690 ca         1 XNT      -0.073000
     10 C12        -26.1920   -13.9850    16.0070 ca         1 XNT      -0.167500
     11 C13        -22.8860   -12.7610    13.6450 ca         1 XNT      -0.146300
     12 C14        -22.7240   -12.0180    12.4710 ca         1 XNT      -0.053200
     13 C16        -22.6180   -10.3920    10.9280 cc         1 XNT      -0.055300
     14 C17        -22.8150    -8.9670    10.4590 c          1 XNT       0.725200
     15 C20        -22.2650   -11.5530    10.2740 cd         1 XNT      -0.151400
     16 C21        -21.8630   -11.7560     8.8800 ca         1 XNT       0.082200
     17 C22        -20.8560   -11.0040     8.2730 ca         1 XNT      -0.064000
     18 C23        -20.4520   -11.2820     6.9820 ca         1 XNT      -0.110000
     19 C24        -21.0280   -12.3090     6.2330 ca         1 XNT      -0.110300
     20 C25        -20.5530   -12.5770     4.8460 c3         1 XNT      -0.206100
     21 C27        -21.0750   -10.0000     3.7870 c3         1 XNT      -0.332100
     22 C30        -22.0290   -13.0540     6.8490 ca         1 XNT       0.147000
     23 C32        -22.4420   -12.7890     8.1440 ca         1 XNT      -0.114000
     24 C33        -22.3320   -12.6070    11.2470 ca         1 XNT      -0.083800
     25 C34        -22.0800   -13.9820    11.2020 ca         1 XNT      -0.066000
     26 C35        -22.2420   -14.7240    12.3540 ca         1 XNT      -0.159000
     27 C36        -22.6400   -14.1200    13.5560 ca         1 XNT      -0.089000
     28 N10        -30.2990   -11.5350    15.1290 n8         1 XNT      -0.995200
     29 N15        -22.8860   -10.6870    12.2350 na         1 XNT      -0.201700
     30 O03        -24.1390   -12.9250    15.7100 os         1 XNT      -0.356100
     31 O18        -22.6360    -8.7430     9.2520 o          1 XNT      -0.699500
     32 O19        -23.1580    -8.1670    11.3510 o          1 XNT      -0.699500
     33 O28        -22.9460   -11.8520     3.8870 o          1 XNT      -0.525500
     34 O29        -21.0400   -12.1680     2.2840 o          1 XNT      -0.525500
     35 S26        -21.5240   -11.7120     3.5870 s6         1 XNT       1.064000
     36 CL31       -22.7760   -14.3800     6.0190 cl         1 XNT      -0.224000
     37 H011       -22.2780   -11.4120    16.7640 hc         1 XNT       0.045033
     38 H013       -21.5250   -12.8510    16.0510 hc         1 XNT       0.045033
     39 H012       -21.3030   -11.2700    15.3000 hc         1 XNT       0.045033
     40 H021       -23.7080   -11.1350    14.7870 h1         1 XNT       0.043700
     41 H051       -25.4300   -11.6840    13.6260 ha         1 XNT       0.125500
     42 H061       -27.7530   -12.0750    13.0630 ha         1 XNT       0.110000
     43 H082       -29.7600   -13.3890    13.2490 hc         1 XNT       0.049200
     44 H081       -29.8110   -14.7850    14.3140 hc         1 XNT       0.049200
     45 H092       -31.5320   -13.1920    14.9320 h1         1 XNT       0.019700
     46 H091       -30.3700   -13.3750    16.2340 h1         1 XNT       0.019700
     47 H111       -28.0970   -14.9080    16.2420 ha         1 XNT       0.110000
     48 H121       -25.7470   -14.5280    16.8320 ha         1 XNT       0.125500
     49 H221       -20.3720   -10.2120     8.8250 ha         1 XNT       0.139000
     50 H231       -19.6540   -10.6980     6.5380 ha         1 XNT       0.098000
     51 H252       -20.6180   -13.6300     4.5630 h1         1 XNT       0.097200
     52 H251       -19.5200   -12.2540     4.7030 h1         1 XNT       0.097200
     53 H271       -21.3700    -9.6500     4.7740 h1         1 XNT       0.103700
     54 H273       -20.0030    -9.8860     3.6450 h1         1 XNT       0.103700
     55 H272       -21.6150    -9.4420     3.0220 h1         1 XNT       0.103700
     56 H321       -23.2300   -13.3870     8.5820 ha         1 XNT       0.132000
     57 H341       -21.7630   -14.4600    10.2840 ha         1 XNT       0.109000
     58 H351       -22.0580   -15.7900    12.3370 ha         1 XNT       0.097000
     59 H361       -22.7530   -14.7410    14.4370 ha         1 XNT       0.105000
     60 H102       -30.9650   -11.0640    15.7270 hn         1 XNT       0.393000
     61 H101       -29.3860   -11.3000    15.4980 hn         1 XNT       0.393000
     62 H151       -23.1800    -9.9760    12.8850 hn         1 XNT       0.368000
@<TRIPOS>BOND
     1     1     2 1   
     2     1    37 1   
     3     1    38 1   
     4     1    39 1   
     5     2    11 1   
     6     2    30 1   
     7     2    40 1   
     8     3     4 ar  
     9     3    10 ar  
    10     3    30 1   
    11     4     5 ar  
    12     4    41 1   
    13     5     6 ar  
    14     5    42 1   
    15     6     7 1   
    16     6     9 ar  
    17     7     8 1   
    18     7    43 1   
    19     7    44 1   
    20     8    28 1   
    21     8    45 1   
    22     8    46 1   
    23     9    10 ar  
    24     9    47 1   
    25    10    48 1   
    26    11    12 ar  
    27    11    27 ar  
    28    12    24 ar  
    29    12    29 1   
    30    13    14 1   
    31    13    15 2   
    32    13    29 1   
    33    14    31 1   
    34    14    32 1   
    35    15    16 1   
    36    15    24 1   
    37    16    17 ar  
    38    16    23 ar  
    39    17    18 ar  
    40    17    49 1   
    41    18    19 ar  
    42    18    50 1   
    43    19    20 1   
    44    19    22 ar  
    45    20    35 1   
    46    20    51 1   
    47    20    52 1   
    48    21    35 1   
    49    21    53 1   
    50    21    54 1   
    51    21    55 1   
    52    22    23 ar  
    53    22    36 1   
    54    23    56 1   
    55    24    25 ar  
    56    25    26 ar  
    57    25    57 1   
    58    26    27 ar  
    59    26    58 1   
    60    27    59 1   
    61    28    60 1   
    62    28    61 1   
    63    29    62 1   
    64    33    35 2   
    65    34    35 2   
@<TRIPOS>SUBSTRUCTURE
     1 XNT         1 TEMP              0 ****  ****    0 ROOT
