@<TRIPOS>MOLECULE
XNT
   62    65     1     0     0
SMALL
No Charge or Current Charge


@<TRIPOS>ATOM
      1 C01        -21.8910   -11.9460    15.8290 c3         1 XNT      -0.085100
      2 C02        -23.1570   -12.0600    14.9630 c3         1 XNT       0.232600
      3 C04        -25.4250   -13.0050    15.3210 ca         1 XNT       0.152100
      4 C05        -25.9920   -12.3250    14.2210 ca         1 XNT      -0.167500
      5 C06        -27.3380   -12.5420    13.8750 ca         1 XNT      -0.073000
      6 C07        -28.1320   -13.4320    14.6240 ca         1 XNT      -0.132300
      7 C08        -29.5940   -13.6740    14.2470 c3         1 XNT      -0.021100
      8 C09        -30.5980   -13.0930    15.2690 c3         1 XNT       0.154800
      9 C11        -27.5640   -14.1060    15.7220 ca         1 XNT      -0.073000
     10 C12        -26.2190   -13.8890    16.0670 ca         1 XNT      -0.167500
     11 C13        -22.8630   -12.7440    13.6220 ca         1 XNT      -0.146300
     12 C14        -22.7460   -12.0110    12.4250 ca         1 XNT      -0.053200
     13 C16        -22.6240   -10.3070    10.8760 cc         1 XNT      -0.055300
     14 C17        -22.6930    -8.9350    10.2740 c          1 XNT       0.725200
     15 C20        -22.4290   -11.5440    10.2360 cd         1 XNT      -0.151400
     16 C21        -21.9380   -11.7910     8.8610 ca         1 XNT       0.082200
     17 C22        -20.9380   -10.9850     8.2840 ca         1 XNT      -0.064000
     18 C23        -20.4580   -11.2470     6.9900 ca         1 XNT      -0.110000
     19 C24        -20.9720   -12.3210     6.2390 ca         1 XNT      -0.110300
     20 C25        -20.4250   -12.5730     4.8300 c3         1 XNT      -0.206100
     21 C27        -21.1780    -9.9810     3.8760 c3         1 XNT      -0.332100
     22 C30        -21.9670   -13.1400     6.8180 ca         1 XNT       0.147000
     23 C32        -22.4390   -12.8750     8.1140 ca         1 XNT      -0.114000
     24 C33        -22.4880   -12.6130    11.2230 ca         1 XNT      -0.083800
     25 C34        -22.2850   -14.0010    11.1280 ca         1 XNT      -0.066000
     26 C35        -22.3910   -14.7660    12.3060 ca         1 XNT      -0.159000
     27 C36        -22.6810   -14.1460    13.5420 ca         1 XNT      -0.089000
     28 N10        -30.4910   -11.6260    15.3910 n8         1 XNT      -0.995200
     29 N15        -22.8260   -10.6430    12.2330 na         1 XNT      -0.201700
     30 O03        -24.1120   -12.8350    15.7150 os         1 XNT      -0.356100
     31 O18        -22.6760    -8.7830     9.0610 o          1 XNT      -0.699500
     32 O19        -22.8350    -7.9940    11.0440 o          1 XNT      -0.699500
     33 O28        -22.7340   -12.0900     3.5670 o          1 XNT      -0.525500
     34 O29        -20.5790   -11.9630     2.2430 o          1 XNT      -0.525500
     35 S26        -21.3130   -11.7280     3.4930 s6         1 XNT       1.064000
     36 Cl31       -22.6430   -14.5200     5.9500 cl         1 XNT      -0.224000
     37 H011       -22.1180   -11.4470    16.7780 hc         1 XNT       0.045033
     38 H013       -21.4760   -12.9370    16.0470 hc         1 XNT       0.045033
     39 H012       -21.1250   -11.3600    15.3080 hc         1 XNT       0.045033
     40 H021       -23.5460   -11.0470    14.7960 h1         1 XNT       0.043700
     41 H051       -25.4100   -11.6300    13.6250 ha         1 XNT       0.125500
     42 H061       -27.7630   -12.0140    13.0240 ha         1 XNT       0.110000
     43 H082       -29.8130   -13.2550    13.2570 hc         1 XNT       0.049200
     44 H081       -29.7740   -14.7520    14.1620 hc         1 XNT       0.049200
     45 H092       -31.6230   -13.3450    14.9650 h1         1 XNT       0.019700
     46 H091       -30.4130   -13.5390    16.2560 h1         1 XNT       0.019700
     47 H111       -28.1640   -14.7990    16.3080 ha         1 XNT       0.110000
     48 H121       -25.7880   -14.4130    16.9160 ha         1 XNT       0.125500
     49 H221       -20.5040   -10.1670     8.8530 ha         1 XNT       0.139000
     50 H231       -19.6790   -10.6120     6.5740 ha         1 XNT       0.098000
     51 H252       -20.4470   -13.6390     4.5810 h1         1 XNT       0.097200
     52 H251       -19.3870   -12.2310     4.7580 h1         1 XNT       0.097200
     53 H271       -21.6880    -9.8080     4.8300 h1         1 XNT       0.103700
     54 H273       -20.1140    -9.7350     3.9440 h1         1 XNT       0.103700
     55 H272       -21.6620    -9.4270     3.0660 h1         1 XNT       0.103700
     56 H321       -23.2240   -13.5000     8.5270 ha         1 XNT       0.132000
     57 H341       -22.0350   -14.4830    10.1880 ha         1 XNT       0.109000
     58 H351       -22.2400   -15.8420    12.2650 ha         1 XNT       0.097000
     59 H361       -22.7550   -14.7560    14.4390 ha         1 XNT       0.105000
     60 H102       -31.0650   -11.3140    16.1840 hn         1 XNT       0.393000
     61 H101       -29.5320   -11.3980    15.6780 hn         1 XNT       0.393000
     62 H151       -23.0060    -9.9590    12.9590 hn         1 XNT       0.368000
@<TRIPOS>BOND
     1     1     2 1   
     2     1    37 1   
     3     1    38 1   
     4     1    39 1   
     5     2    11 1   
     6     2    30 1   
     7     2    40 1   
     8     3     4 ar  
     9     3    10 ar  
    10     3    30 1   
    11     4     5 ar  
    12     4    41 1   
    13     5     6 ar  
    14     5    42 1   
    15     6     7 1   
    16     6     9 ar  
    17     7     8 1   
    18     7    43 1   
    19     7    44 1   
    20     8    28 1   
    21     8    45 1   
    22     8    46 1   
    23     9    10 ar  
    24     9    47 1   
    25    10    48 1   
    26    11    12 ar  
    27    11    27 ar  
    28    12    24 ar  
    29    12    29 1   
    30    13    14 1   
    31    13    15 2   
    32    13    29 1   
    33    14    31 1   
    34    14    32 1   
    35    15    16 1   
    36    15    24 1   
    37    16    17 ar  
    38    16    23 ar  
    39    17    18 ar  
    40    17    49 1   
    41    18    19 ar  
    42    18    50 1   
    43    19    20 1   
    44    19    22 ar  
    45    20    35 1   
    46    20    51 1   
    47    20    52 1   
    48    21    35 1   
    49    21    53 1   
    50    21    54 1   
    51    21    55 1   
    52    22    23 ar  
    53    22    36 1   
    54    23    56 1   
    55    24    25 ar  
    56    25    26 ar  
    57    25    57 1   
    58    26    27 ar  
    59    26    58 1   
    60    27    59 1   
    61    28    60 1   
    62    28    61 1   
    63    29    62 1   
    64    33    35 2   
    65    34    35 2   
@<TRIPOS>SUBSTRUCTURE
     1 XNT         1 TEMP              0 ****  ****    0 ROOT
