@<TRIPOS>MOLECULE
XNV
   69    71     1     0     0
SMALL
abcg2


@<TRIPOS>ATOM
      1 C01        -16.4090    27.6390   -28.3690 c3         1 XNV      -0.095100
      2 C02        -16.7950    27.0490   -27.0330 c3         1 XNV       0.167600
      3 O03        -17.3120    25.7150   -27.2750 os         1 XNV      -0.455100
      4 C04        -17.7270    25.0180   -26.2120 c          1 XNV       0.601100
      5 C05        -18.2110    23.6460   -26.6100 c3         1 XNV      -0.131400
      6 C06        -19.0930    22.9680   -25.5680 c3         1 XNV      -0.074400
      7 C07        -20.4340    23.6680   -25.3270 c3         1 XNV       0.105700
      8 N08        -21.2000    23.7990   -26.5670 ns         1 XNV      -0.496900
      9 C09        -21.2930    24.9410   -27.2620 c          1 XNV       0.575100
     10 C10        -22.3660    24.9170   -28.3690 c3         1 XNV       0.014700
     11 N11        -23.6370    25.3030   -27.7160 n          1 XNV      -0.249000
     12 C12        -24.3690    24.2740   -27.1420 c          1 XNV       0.531200
     13 C13        -25.4880    24.6790   -26.3170 cc         1 XNV      -0.072600
     14 N14        -26.0800    23.6000   -25.6620 ns         1 XNV      -0.384100
     15 C15        -26.8800    23.6320   -24.5680 c          1 XNV       0.527600
     16 C16        -27.1110    22.3030   -23.9340 cc         1 XNV       0.221500
     17 N17        -26.6800    21.1920   -24.4810 nd         1 XNV      -0.331300
     18 O18        -27.0390    20.1830   -23.6010 os         1 XNV      -0.069700
     19 C19        -27.6830    20.7200   -22.5350 cd         1 XNV       0.193300
     20 C20        -28.1370    19.7850   -21.4810 c3         1 XNV      -0.137400
     21 C21        -27.7600    22.0660   -22.6970 cc         1 XNV      -0.214000
     22 O22        -27.3710    24.6450   -24.0860 o          1 XNV      -0.584100
     23 C23        -25.8300    25.9980   -26.1840 cd         1 XNV      -0.122000
     24 C24        -25.0560    26.9840   -26.8300 cd         1 XNV      -0.264000
     25 C25        -23.9700    26.6190   -27.5580 cc         1 XNV      -0.045400
     26 O26        -24.0420    23.0830   -27.2840 o          1 XNV      -0.601000
     27 C27        -21.9720    25.8050   -29.5470 c3         1 XNV       0.009700
     28 C28        -23.0100    25.8850   -30.5660 c1         1 XNV      -0.166100
     29 C29        -23.8820    25.9530   -31.3880 c1         1 XNV      -0.211000
     30 O30        -20.6500    25.9590   -27.0260 o          1 XNV      -0.603100
     31 C31        -21.2600    22.9220   -24.2750 c3         1 XNV      -0.071400
     32 C32        -22.6370    23.5240   -24.0300 c5         1 XNV      -0.153700
     33 C33        -22.6710    24.9760   -23.5340 c5         1 XNV      -0.091400
     34 C34        -23.9680    25.0620   -22.7140 c5         1 XNV       0.098000
     35 N35        -24.1680    23.6800   -22.2920 ns         1 XNV      -0.517900
     36 C36        -23.4590    22.7700   -22.9890 c          1 XNV       0.555000
     37 O37        -23.4980    21.5520   -22.8320 o          1 XNV      -0.557000
     38 O38        -17.6770    25.4410   -25.0770 o          1 XNV      -0.497000
     39 H10        -22.5120    23.9000   -28.7210 h1         1 XNV       0.106700
     40 H20        -28.6480    20.3400   -20.6970 hc         1 XNV       0.066700
     41 H20A       -28.8200    19.0410   -21.8940 hc         1 XNV       0.066700
     42 H20B       -27.2860    19.2570   -21.0450 hc         1 XNV       0.066700
     43 H01        -15.6370    27.0380   -28.8520 hc         1 XNV       0.045700
     44 H21        -28.2020    22.7890   -22.0360 ha         1 XNV       0.165000
     45 H31        -21.3780    21.8790   -24.5800 hc         1 XNV       0.065200
     46 H01A       -17.2740    27.7000   -29.0320 hc         1 XNV       0.045700
     47 H31A       -20.6880    22.9200   -23.3440 hc         1 XNV       0.065200
     48 H01B       -16.0180    28.6460   -28.2200 hc         1 XNV       0.045700
     49 H02        -17.5720    27.6340   -26.5390 h1         1 XNV       0.051200
     50 H32        -23.2230    23.4390   -24.9490 hc         1 XNV       0.074700
     51 H02A       -15.9400    26.9720   -26.3600 h1         1 XNV       0.051200
     52 H23        -26.6680    26.2780   -25.5670 ha         1 XNV       0.223000
     53 H33        -21.8100    25.1590   -22.8870 hc         1 XNV       0.062200
     54 H33A       -22.6490    25.7040   -24.3430 hc         1 XNV       0.062200
     55 HN14       -25.6880    22.7020   -25.9270 hn         1 XNV       0.365500
     56 H24        -25.3070    28.0300   -26.7340 ha         1 XNV       0.207000
     57 H34        -23.8780    25.7210   -21.8510 h1         1 XNV       0.051700
     58 H34A       -24.8090    25.4050   -23.3210 h1         1 XNV       0.051700
     59 H05        -17.3160    23.0410   -26.7850 hc         1 XNV       0.072200
     60 H25        -23.3250    27.3380   -28.0340 h4         1 XNV       0.219000
     61 HN35       -24.8800    23.4010   -21.6340 hn         1 XNV       0.328500
     62 H05A       -18.7170    23.7210   -27.5730 hc         1 XNV       0.072200
     63 H06        -19.2850    21.9420   -25.8920 hc         1 XNV       0.058700
     64 H07        -20.2440    24.6840   -24.9840 h1         1 XNV       0.087700
     65 H27        -21.6930    26.8030   -29.2070 hc         1 XNV       0.081700
     66 H27A       -21.0650    25.3700   -29.9750 hc         1 XNV       0.081700
     67 HN08       -21.8150    23.0430   -26.8340 hn         1 XNV       0.338500
     68 H29        -24.6510    26.0140   -32.1220 ha         1 XNV       0.259000
     69 H06A       -18.5630    22.9120   -24.6160 hc         1 XNV       0.058700
@<TRIPOS>BOND
     1     1     2 1   
     2     1    43 1   
     3     1    46 1   
     4     1    48 1   
     5     2     3 1   
     6     2    49 1   
     7     2    51 1   
     8     3     4 1   
     9     4     5 1   
    10     4    38 2   
    11     5     6 1   
    12     5    59 1   
    13     5    62 1   
    14     6     7 1   
    15     6    63 1   
    16     6    69 1   
    17     7     8 1   
    18     7    31 1   
    19     7    64 1   
    20     8     9 1   
    21     8    67 1   
    22     9    10 1   
    23     9    30 2   
    24    10    11 1   
    25    10    27 1   
    26    10    39 1   
    27    11    12 1   
    28    11    25 1   
    29    12    13 1   
    30    12    26 2   
    31    13    14 1   
    32    13    23 2   
    33    14    15 1   
    34    14    55 1   
    35    15    16 1   
    36    15    22 2   
    37    16    17 2   
    38    16    21 1   
    39    17    18 1   
    40    18    19 1   
    41    19    20 1   
    42    19    21 2   
    43    20    40 1   
    44    20    41 1   
    45    20    42 1   
    46    21    44 1   
    47    23    24 1   
    48    23    52 1   
    49    24    25 2   
    50    24    56 1   
    51    25    60 1   
    52    27    28 1   
    53    27    65 1   
    54    27    66 1   
    55    28    29 3   
    56    29    68 1   
    57    31    32 1   
    58    31    45 1   
    59    31    47 1   
    60    32    33 1   
    61    32    36 1   
    62    32    50 1   
    63    33    34 1   
    64    33    53 1   
    65    33    54 1   
    66    34    35 1   
    67    34    57 1   
    68    34    58 1   
    69    35    36 1   
    70    35    61 1   
    71    36    37 2   
@<TRIPOS>SUBSTRUCTURE
     1 XNV         1 TEMP              0 ****  ****    0 ROOT
