@<TRIPOS>MOLECULE
XNV
   69    71     1     0     0
SMALL
No Charge or Current Charge


@<TRIPOS>ATOM
      1 C01        -20.3490    28.4130   -27.6880 c3         1 XNV      -0.095100
      2 C02        -19.1480    28.0040   -26.8210 c3         1 XNV       0.167600
      3 O03        -18.7600    26.6750   -27.2100 os         1 XNV      -0.455100
      4 C04        -17.7060    26.0980   -26.5510 c          1 XNV       0.601100
      5 C05        -17.4180    24.6820   -27.0600 c3         1 XNV      -0.131400
      6 C06        -17.7570    23.5800   -26.0170 c3         1 XNV      -0.074400
      7 C07        -19.1990    23.6120   -25.4490 c3         1 XNV       0.105700
      8 N08        -20.1830    23.6270   -26.5360 ns         1 XNV      -0.496900
      9 C09        -21.2200    24.5330   -26.6550 c          1 XNV       0.575100
     10 C10        -22.1180    24.3380   -27.9020 c3         1 XNV       0.014700
     11 N11        -23.4930    24.9250   -27.6920 n          1 XNV      -0.249000
     12 C12        -24.3290    24.2510   -26.7660 c          1 XNV       0.531200
     13 C13        -25.6590    24.8810   -26.5050 cc         1 XNV      -0.072600
     14 N14        -26.4490    24.1690   -25.5850 ns         1 XNV      -0.384100
     15 C15        -27.7220    24.4060   -25.0770 c          1 XNV       0.527600
     16 C16        -28.1580    23.3600   -24.0950 cc         1 XNV       0.221500
     17 N17        -27.4370    22.3060   -23.7200 nd         1 XNV      -0.331300
     18 O18        -28.2860    21.6200   -22.7750 os         1 XNV      -0.069700
     19 C19        -29.4560    22.3210   -22.6580 cd         1 XNV       0.193300
     20 C20        -30.5290    21.8280   -21.7300 c3         1 XNV      -0.137400
     21 C21        -29.4170    23.4100   -23.4610 cc         1 XNV      -0.214000
     22 O22        -28.4120    25.3680   -25.3990 o          1 XNV      -0.584100
     23 C23        -26.0480    26.0580   -27.1210 cd         1 XNV      -0.122000
     24 C24        -25.1350    26.6940   -28.0290 cd         1 XNV      -0.264000
     25 C25        -23.9020    26.1310   -28.2790 cc         1 XNV      -0.045400
     26 O26        -23.9880    23.2050   -26.2180 o          1 XNV      -0.601000
     27 C27        -21.3390    24.7890   -29.1760 c3         1 XNV       0.009700
     28 C28        -22.0490    24.4880   -30.4290 c1         1 XNV      -0.166100
     29 C29        -22.6600    24.2470   -31.4450 c1         1 XNV      -0.211000
     30 O30        -21.4050    25.4180   -25.8310 o          1 XNV      -0.603100
     31 C31        -19.4660    22.4290   -24.4840 c3         1 XNV      -0.071400
     32 C32        -20.8590    22.4310   -23.7910 c5         1 XNV      -0.153700
     33 C33        -21.1080    23.6030   -22.8010 c5         1 XNV      -0.091400
     34 C34        -22.2880    23.0440   -21.9600 c5         1 XNV       0.098000
     35 N35        -21.9140    21.6330   -21.8860 ns         1 XNV      -0.517900
     36 C36        -21.1210    21.1990   -22.9140 c          1 XNV       0.555000
     37 O37        -20.5810    20.1050   -22.9240 o          1 XNV      -0.557000
     38 O38        -17.0500    26.6480   -25.6770 o          1 XNV      -0.497000
     39 H10        -22.2480    23.2520   -28.0000 h1         1 XNV       0.106700
     40 H20        -31.5250    22.0110   -22.1510 hc         1 XNV       0.066700
     41 H20A       -30.4320    20.7500   -21.5500 hc         1 XNV       0.066700
     42 H20B       -30.4700    22.3400   -20.7620 hc         1 XNV       0.066700
     43 H01        -20.0950    28.3590   -28.7530 hc         1 XNV       0.045700
     44 H21        -30.1810    24.1670   -23.5980 ha         1 XNV       0.165000
     45 H31        -19.3470    21.4950   -25.0460 hc         1 XNV       0.065200
     46 H01A       -21.2060    27.7580   -27.4950 hc         1 XNV       0.045700
     47 H31A       -18.6830    22.4190   -23.7150 hc         1 XNV       0.065200
     48 H01B       -20.6480    29.4420   -27.4570 hc         1 XNV       0.045700
     49 H02        -19.4350    28.0340   -25.7610 h1         1 XNV       0.051200
     50 H32        -21.6520    22.4520   -24.5470 hc         1 XNV       0.074700
     51 H02A       -18.3240    28.7130   -26.9800 h1         1 XNV       0.051200
     52 H23        -27.0130    26.5180   -26.9340 ha         1 XNV       0.223000
     53 H33        -20.2310    23.7830   -22.1670 hc         1 XNV       0.062200
     54 H33A       -21.3570    24.5490   -23.2940 hc         1 XNV       0.062200
     55 HN14       -26.0310    23.3210   -25.2080 hn         1 XNV       0.365500
     56 H24        -25.4120    27.6270   -28.5160 ha         1 XNV       0.207000
     57 H34        -22.3540    23.5220   -20.9730 h1         1 XNV       0.051700
     58 H34A       -23.2480    23.1760   -22.4770 h1         1 XNV       0.051700
     59 H05        -16.3500    24.6130   -27.2940 hc         1 XNV       0.072200
     60 H25        -23.1680    26.5780   -28.9380 h4         1 XNV       0.219000
     61 HN35       -22.1370    20.9920   -21.1330 hn         1 XNV       0.328500
     62 H05A       -17.9950    24.5000   -27.9740 hc         1 XNV       0.072200
     63 H06        -17.5730    22.6010   -26.4780 hc         1 XNV       0.058700
     64 H07        -19.3010    24.5410   -24.8690 h1         1 XNV       0.087700
     65 H27        -21.1010    25.8580   -29.1280 hc         1 XNV       0.081700
     66 H27A       -20.3720    24.2730   -29.2120 hc         1 XNV       0.081700
     67 HN08       -20.1130    22.9110   -27.2500 hn         1 XNV       0.338500
     68 H29        -23.2130    24.0310   -32.3380 ha         1 XNV       0.259000
     69 H06A       -17.0510    23.6620   -25.1800 hc         1 XNV       0.058700
@<TRIPOS>BOND
     1     1     2 1   
     2     1    43 1   
     3     1    46 1   
     4     1    48 1   
     5     2     3 1   
     6     2    49 1   
     7     2    51 1   
     8     3     4 1   
     9     4     5 1   
    10     4    38 2   
    11     5     6 1   
    12     5    59 1   
    13     5    62 1   
    14     6     7 1   
    15     6    63 1   
    16     6    69 1   
    17     7     8 1   
    18     7    31 1   
    19     7    64 1   
    20     8     9 1   
    21     8    67 1   
    22     9    10 1   
    23     9    30 2   
    24    10    11 1   
    25    10    27 1   
    26    10    39 1   
    27    11    12 1   
    28    11    25 1   
    29    12    13 1   
    30    12    26 2   
    31    13    14 1   
    32    13    23 2   
    33    14    15 1   
    34    14    55 1   
    35    15    16 1   
    36    15    22 2   
    37    16    17 2   
    38    16    21 1   
    39    17    18 1   
    40    18    19 1   
    41    19    20 1   
    42    19    21 2   
    43    20    40 1   
    44    20    41 1   
    45    20    42 1   
    46    21    44 1   
    47    23    24 1   
    48    23    52 1   
    49    24    25 2   
    50    24    56 1   
    51    25    60 1   
    52    27    28 1   
    53    27    65 1   
    54    27    66 1   
    55    28    29 3   
    56    29    68 1   
    57    31    32 1   
    58    31    45 1   
    59    31    47 1   
    60    32    33 1   
    61    32    36 1   
    62    32    50 1   
    63    33    34 1   
    64    33    53 1   
    65    33    54 1   
    66    34    35 1   
    67    34    57 1   
    68    34    58 1   
    69    35    36 1   
    70    35    61 1   
    71    36    37 2   
@<TRIPOS>SUBSTRUCTURE
     1 XNV         1 TEMP              0 ****  ****    0 ROOT
