@<TRIPOS>MOLECULE
XNW
   39    40     1     0     0
SMALL
abcg2


@<TRIPOS>ATOM
      1 CAA         -6.4080     0.6710    -0.1460 c3         1 XNW       0.154900
      2 OAN         -5.4770    -0.1230    -0.8530 os         1 XNW      -0.351100
      3 CAR         -4.2330    -0.2530    -0.3470 ca         1 XNW       0.113100
      4 CAK         -3.3440    -1.0410    -1.0820 ca         1 XNW      -0.179000
      5 CAI         -2.0500    -1.2280    -0.6350 ca         1 XNW      -0.071000
      6 CAJ         -3.7960     0.3340     0.8360 ca         1 XNW      -0.179000
      7 CAH         -2.4870     0.1350     1.2660 ca         1 XNW      -0.071000
      8 CAQ         -1.5910    -0.6430     0.5480 ca         1 XNW      -0.094300
      9 CAL         -0.1720    -0.8680     0.9950 c3         1 XNW      -0.013100
     10 CAU          0.8420    -0.1380     0.1120 c6         1 XNW      -0.145700
     11 CAP          0.9060     1.3380     0.4070 c          1 XNW       0.564100
     12 OAC          0.2890     1.8800     1.2950 o          1 XNW      -0.550100
     13 CAT          1.8320     2.1320    -0.4980 c6         1 XNW       0.024300
     14 OAF          1.9040     3.4840    -0.1490 oh         1 XNW      -0.667000
     15 CAS          3.2450     1.5450    -0.4240 c6         1 XNW       0.185300
     16 OAE          4.1040     2.1680    -1.3500 oh         1 XNW      -0.668000
     17 CAM          3.2090     0.0600    -0.7320 c6         1 XNW      -0.070400
     18 CAV          2.2760    -0.7050     0.2110 c6         1 XNW       0.035000
     19 CAO          2.2680    -2.2070    -0.1900 c          1 XNW       0.700000
     20 OAD          2.7000    -2.9780     0.6950 o          1 XNW      -0.705000
     21 OAB          1.8530    -2.5000    -1.3190 o          1 XNW      -0.705000
     22 OAG          2.7240    -0.5970     1.5380 oh         1 XNW      -0.702000
     23 HAA1        -6.0770     1.7090    -0.0590 h1         1 XNW       0.031033
     24 HAA2        -7.3330     0.6470    -0.7170 h1         1 XNW       0.031033
     25 HAA3        -6.6030     0.2800     0.8560 h1         1 XNW       0.031033
     26 HAK         -3.6780    -1.5060    -2.0020 ha         1 XNW       0.109500
     27 HAJ         -4.4520     0.9510     1.4350 ha         1 XNW       0.109500
     28 HAI         -1.3770    -1.8510    -1.2150 ha         1 XNW       0.128500
     29 HAH         -2.1700     0.6020     2.1900 ha         1 XNW       0.128500
     30 HAL1        -0.0500    -0.5690     2.0360 hc         1 XNW       0.069700
     31 HAL2         0.0330    -1.9400     0.9620 hc         1 XNW       0.069700
     32 HAU          0.5450    -0.2420    -0.9390 hc         1 XNW       0.083700
     33 HAT          1.4650     1.9960    -1.5300 h1         1 XNW       0.051700
     34 HAF          1.0120     3.8350    -0.0550 ho         1 XNW       0.449000
     35 HAS          3.6120     1.6940     0.6010 h1         1 XNW       0.053700
     36 HAE          4.2090     3.0900    -1.0960 ho         1 XNW       0.441000
     37 HAM1         2.8820    -0.0890    -1.7650 hc         1 XNW       0.064200
     38 HAM2         4.2200    -0.3480    -0.6510 hc         1 XNW       0.064200
     39 HAG          2.9090    -1.5280     1.7710 ho         1 XNW       0.481000
@<TRIPOS>BOND
     1     1     2 1   
     2     1    23 1   
     3     1    24 1   
     4     1    25 1   
     5     2     3 1   
     6     3     4 ar  
     7     3     6 ar  
     8     4     5 ar  
     9     4    26 1   
    10     5     8 ar  
    11     5    28 1   
    12     6     7 ar  
    13     6    27 1   
    14     7     8 ar  
    15     7    29 1   
    16     8     9 1   
    17     9    10 1   
    18     9    30 1   
    19     9    31 1   
    20    10    11 1   
    21    10    18 1   
    22    10    32 1   
    23    11    12 2   
    24    11    13 1   
    25    13    14 1   
    26    13    15 1   
    27    13    33 1   
    28    14    34 1   
    29    15    16 1   
    30    15    17 1   
    31    15    35 1   
    32    16    36 1   
    33    17    18 1   
    34    17    37 1   
    35    17    38 1   
    36    18    19 1   
    37    18    22 1   
    38    19    20 1   
    39    19    21 1   
    40    22    39 1   
@<TRIPOS>SUBSTRUCTURE
     1 XNW         1 TEMP              0 ****  ****    0 ROOT
