@<TRIPOS>MOLECULE
XNW
   39    40     1     0     0
SMALL
No Charge or Current Charge


@<TRIPOS>ATOM
      1 CAA         -6.5810     0.6030    -0.1620 c3         1 XNW       0.154900
      2 OAN         -5.5780    -0.1780    -0.8340 os         1 XNW      -0.351100
      3 CAR         -4.2920    -0.2990    -0.3490 ca         1 XNW       0.113100
      4 CAK         -3.3860    -1.0850    -1.0770 ca         1 XNW      -0.179000
      5 CAI         -2.0620    -1.2450    -0.6320 ca         1 XNW      -0.071000
      6 CAJ         -3.8650     0.3300     0.8410 ca         1 XNW      -0.179000
      7 CAH         -2.5400     0.1700     1.2860 ca         1 XNW      -0.071000
      8 CAQ         -1.6300    -0.6140     0.5510 ca         1 XNW      -0.094300
      9 CAL         -0.1930    -0.7960     1.0330 c3         1 XNW      -0.013100
     10 CAU          0.8760    -0.1000     0.1200 c6         1 XNW      -0.145700
     11 CAP          0.9030     1.4410     0.3040 c          1 XNW       0.564100
     12 OAC          0.0480     2.0490     0.9440 o          1 XNW      -0.550100
     13 CAT          2.0020     2.2260    -0.4790 c6         1 XNW       0.024300
     14 OAF          2.1160     3.6080    -0.0360 oh         1 XNW      -0.667000
     15 CAS          3.3800     1.5160    -0.4310 c6         1 XNW       0.185300
     16 OAE          4.2750     2.1690    -1.3390 oh         1 XNW      -0.668000
     17 CAM          3.2750     0.0130    -0.7660 c6         1 XNW      -0.070400
     18 CAV          2.3010    -0.7450     0.1840 c6         1 XNW       0.035000
     19 CAO          2.2920    -2.2800    -0.2250 c          1 XNW       0.700000
     20 OAD          2.7840    -3.0680     0.5750 o          1 XNW      -0.705000
     21 OAB          1.7200    -2.6220    -1.2510 o          1 XNW      -0.705000
     22 OAG          2.7900    -0.6220     1.5410 oh         1 XNW      -0.702000
     23 HAA1        -6.2730     1.6540    -0.0890 h1         1 XNW       0.031033
     24 HAA2        -7.5270     0.5640    -0.7160 h1         1 XNW       0.031033
     25 HAA3        -6.7630     0.2170     0.8490 h1         1 XNW       0.031033
     26 HAK         -3.7110    -1.5740    -1.9920 ha         1 XNW       0.109500
     27 HAJ         -4.5400     0.9440     1.4290 ha         1 XNW       0.109500
     28 HAI         -1.3720    -1.8610    -1.2060 ha         1 XNW       0.128500
     29 HAH         -2.2210     0.6620     2.2020 ha         1 XNW       0.128500
     30 HAL1        -0.0840    -0.4460     2.0680 hc         1 XNW       0.069700
     31 HAL2         0.0020    -1.8740     1.0840 hc         1 XNW       0.069700
     32 HAU          0.5710    -0.2380    -0.9260 hc         1 XNW       0.083700
     33 HAT          1.6560     2.2020    -1.5230 h1         1 XNW       0.051700
     34 HAF          1.2550     3.8350     0.3880 ho         1 XNW       0.449000
     35 HAS          3.7710     1.6100     0.5940 h1         1 XNW       0.053700
     36 HAE          4.0790     3.1270    -1.2320 ho         1 XNW       0.441000
     37 HAM1         2.9480    -0.1090    -1.8080 hc         1 XNW       0.064200
     38 HAM2         4.2730    -0.4420    -0.7070 hc         1 XNW       0.064200
     39 HAG          3.0420    -1.5490     1.7860 ho         1 XNW       0.481000
@<TRIPOS>BOND
     1     1     2 1   
     2     1    23 1   
     3     1    24 1   
     4     1    25 1   
     5     2     3 1   
     6     3     4 ar  
     7     3     6 ar  
     8     4     5 ar  
     9     4    26 1   
    10     5     8 ar  
    11     5    28 1   
    12     6     7 ar  
    13     6    27 1   
    14     7     8 ar  
    15     7    29 1   
    16     8     9 1   
    17     9    10 1   
    18     9    30 1   
    19     9    31 1   
    20    10    11 1   
    21    10    18 1   
    22    10    32 1   
    23    11    12 2   
    24    11    13 1   
    25    13    14 1   
    26    13    15 1   
    27    13    33 1   
    28    14    34 1   
    29    15    16 1   
    30    15    17 1   
    31    15    35 1   
    32    16    36 1   
    33    17    18 1   
    34    17    37 1   
    35    17    38 1   
    36    18    19 1   
    37    18    22 1   
    38    19    20 1   
    39    19    21 1   
    40    22    39 1   
@<TRIPOS>SUBSTRUCTURE
     1 XNW         1 TEMP              0 ****  ****    0 ROOT
