@<TRIPOS>MOLECULE
XNX
   39    42     1     0     0
SMALL
abcg2


@<TRIPOS>ATOM
      1 N1          25.8010   -57.4400     5.7550 nc         1 XNX      -0.469300
      2 C4          26.4880   -55.4820     6.6660 ca         1 XNX      -0.248900
      3 C5          26.9940   -54.2250     6.9930 ca         1 XNX       0.248000
      4 C6          26.6920   -53.6310     8.1980 ca         1 XNX      -0.197000
      5 C7          26.5420   -56.3830     5.5320 cd         1 XNX       0.505500
      6 C10         23.1060   -59.4490     5.7030 ca         1 XNX       0.166500
      7 C13         24.6940   -61.7110     5.9170 ca         1 XNX      -0.105000
      8 C15         27.2580   -56.2450     4.2590 ca         1 XNX      -0.175900
      9 C17         29.2270   -55.6520     2.9920 ca         1 XNX      -0.100000
     10 C20         26.6460   -56.6620     3.0710 ca         1 XNX      -0.099000
     11 C1          25.8540   -54.2920     9.1070 ca         1 XNX      -0.061000
     12 C2          25.3070   -55.5350     8.8290 ca         1 XNX      -0.133000
     13 C3          25.6370   -56.1030     7.6020 ca         1 XNX      -0.045000
     14 F1          27.7840   -53.5660     6.1220 f          1 XNX      -0.158000
     15 N2          25.2420   -57.2970     7.0050 n          1 XNX       0.040600
     16 O1          23.9020   -58.1840     8.6090 o          1 XNX      -0.545100
     17 C9          24.1660   -59.4460     6.6050 ca         1 XNX      -0.098600
     18 C11         22.8230   -60.5560     4.9170 ca         1 XNX      -0.105000
     19 C12         23.6220   -61.6860     5.0340 ca         1 XNX      -0.081000
     20 C14         24.9550   -60.5900     6.6900 ca         1 XNX       0.166500
     21 CL1         26.3190   -60.5990     7.7800 cl         1 XNX      -0.186000
     22 C16         28.5590   -55.7380     4.2050 ca         1 XNX      -0.099000
     23 C18         28.6170   -56.0550     1.8030 ca         1 XNX      -0.102600
     24 C19         27.3180   -56.5630     1.8630 ca         1 XNX      -0.100000
     25 H1          27.1010   -52.6560     8.4250 ha         1 XNX       0.129000
     26 H2          25.3230   -62.5860     6.0040 ha         1 XNX       0.134000
     27 H3          30.2370   -55.2680     2.9550 ha         1 XNX       0.133000
     28 H4          25.6360   -57.0490     3.1040 ha         1 XNX       0.098000
     29 H5          25.6230   -53.8100    10.0480 ha         1 XNX       0.112000
     30 H6          24.6530   -56.0350     9.5240 ha         1 XNX       0.144000
     31 H7          21.9940   -60.5290     4.2240 ha         1 XNX       0.134000
     32 H8          23.4090   -62.5560     4.4260 ha         1 XNX       0.121000
     33 H9          29.0550   -55.4260     5.1140 ha         1 XNX       0.098000
     34 H10         26.8380   -56.8730     0.9450 ha         1 XNX       0.133000
     35 C8          24.4070   -58.2720     7.5100 c          1 XNX       0.663700
     36 C21         29.3530   -55.9390     0.4670 c          1 XNX       0.704600
     37 O2          30.5290   -55.4990     0.5050 o          1 XNX      -0.717000
     38 O3          28.7220   -56.2900    -0.5610 o          1 XNX      -0.717000
     39 CL2         22.1250   -58.0140     5.5460 cl         1 XNX      -0.186000
@<TRIPOS>BOND
     1     1     5 2   
     2     1    15 1   
     3     2     3 ar  
     4     2     5 1   
     5     2    13 ar  
     6     3     4 ar  
     7     3    14 1   
     8     4    11 ar  
     9     4    25 1   
    10     5     8 1   
    11     6    17 ar  
    12     6    18 ar  
    13     6    39 1   
    14     7    19 ar  
    15     7    20 ar  
    16     7    26 1   
    17     8    10 ar  
    18     8    22 ar  
    19     9    22 ar  
    20     9    23 ar  
    21     9    27 1   
    22    10    24 ar  
    23    10    28 1   
    24    11    12 ar  
    25    11    29 1   
    26    12    13 ar  
    27    12    30 1   
    28    13    15 1   
    29    15    35 1   
    30    16    35 2   
    31    17    20 ar  
    32    17    35 1   
    33    18    19 ar  
    34    18    31 1   
    35    19    32 1   
    36    20    21 1   
    37    22    33 1   
    38    23    24 ar  
    39    23    36 1   
    40    24    34 1   
    41    36    37 1   
    42    36    38 1   
@<TRIPOS>SUBSTRUCTURE
     1 XNX         1 TEMP              0 ****  ****    0 ROOT
