@<TRIPOS>MOLECULE
XNX
   39    42     1     0     0
SMALL
No Charge or Current Charge


@<TRIPOS>ATOM
      1 N1          25.8220   -57.4670     5.6790 nc         1 XNX      -0.469300
      2 C4          26.4580   -55.4990     6.6030 ca         1 XNX      -0.248900
      3 C5          26.9180   -54.1940     6.8300 ca         1 XNX       0.248000
      4 C6          26.6570   -53.6000     8.0790 ca         1 XNX      -0.197000
      5 C7          26.5250   -56.3650     5.4350 cd         1 XNX       0.505500
      6 C10         23.2310   -59.4560     5.6880 ca         1 XNX       0.166500
      7 C13         24.3500   -61.9740     6.2310 ca         1 XNX      -0.105000
      8 C15         27.2550   -56.1430     4.1720 ca         1 XNX      -0.175900
      9 C17         29.2860   -55.5000     2.9690 ca         1 XNX      -0.100000
     10 C20         26.6800   -56.5320     2.9450 ca         1 XNX      -0.099000
     11 C1          25.9250   -54.3000     9.0660 ca         1 XNX      -0.061000
     12 C2          25.4320   -55.5950     8.8010 ca         1 XNX      -0.133000
     13 C3          25.7100   -56.1720     7.5490 ca         1 XNX      -0.045000
     14 F1          27.5660   -53.4920     5.8780 f          1 XNX      -0.158000
     15 N2          25.2960   -57.4190     6.9740 n          1 XNX       0.040600
     16 O1          24.1190   -58.3500     8.7730 o          1 XNX      -0.545100
     17 C9          24.1370   -59.6010     6.7590 ca         1 XNX      -0.098600
     18 C11         22.8920   -60.5640     4.8940 ca         1 XNX      -0.105000
     19 C12         23.4520   -61.8240     5.1610 ca         1 XNX      -0.081000
     20 C14         24.6890   -60.8680     7.0290 ca         1 XNX       0.166500
     21 Cl1         25.8450   -61.0970     8.3410 cl         1 XNX      -0.186000
     22 C16         28.5770   -55.6560     4.1730 ca         1 XNX      -0.099000
     23 C18         28.6990   -55.8510     1.7320 ca         1 XNX      -0.102600
     24 C19         27.3860   -56.3760     1.7400 ca         1 XNX      -0.100000
     25 H1          27.0100   -52.5920     8.2780 ha         1 XNX       0.129000
     26 H2          24.7870   -62.9470     6.4410 ha         1 XNX       0.134000
     27 H3          30.3020   -55.1130     3.0040 ha         1 XNX       0.133000
     28 H4          25.6740   -56.9460     2.9220 ha         1 XNX       0.098000
     29 H5          25.7230   -53.8300    10.0260 ha         1 XNX       0.112000
     30 H6          24.8440   -56.1110     9.5550 ha         1 XNX       0.144000
     31 H7          22.1880   -60.4460     4.0730 ha         1 XNX       0.134000
     32 H8          23.1890   -62.6820     4.5450 ha         1 XNX       0.121000
     33 H9          29.0680   -55.4080     5.1110 ha         1 XNX       0.098000
     34 H10         26.9080   -56.6710     0.8080 ha         1 XNX       0.133000
     35 C8          24.5070   -58.4250     7.6090 c          1 XNX       0.663700
     36 C21         29.4660   -55.6830     0.4270 c          1 XNX       0.704600
     37 O2          30.6030   -55.2320     0.4680 o          1 XNX      -0.717000
     38 O3          28.9210   -56.0040    -0.6200 o          1 XNX      -0.717000
     39 Cl2         22.4580   -57.9070     5.3450 cl         1 XNX      -0.186000
@<TRIPOS>BOND
     1     1     5 2   
     2     1    15 1   
     3     2     3 ar  
     4     2     5 1   
     5     2    13 ar  
     6     3     4 ar  
     7     3    14 1   
     8     4    11 ar  
     9     4    25 1   
    10     5     8 1   
    11     6    17 ar  
    12     6    18 ar  
    13     6    39 1   
    14     7    19 ar  
    15     7    20 ar  
    16     7    26 1   
    17     8    10 ar  
    18     8    22 ar  
    19     9    22 ar  
    20     9    23 ar  
    21     9    27 1   
    22    10    24 ar  
    23    10    28 1   
    24    11    12 ar  
    25    11    29 1   
    26    12    13 ar  
    27    12    30 1   
    28    13    15 1   
    29    15    35 1   
    30    16    35 2   
    31    17    20 ar  
    32    17    35 1   
    33    18    19 ar  
    34    18    31 1   
    35    19    32 1   
    36    20    21 1   
    37    22    33 1   
    38    23    24 ar  
    39    23    36 1   
    40    24    34 1   
    41    36    37 1   
    42    36    38 1   
@<TRIPOS>SUBSTRUCTURE
     1 XNX         1 TEMP              0 ****  ****    0 ROOT
