@<TRIPOS>MOLECULE
XNZ
   66    70     1     0     0
SMALL
No Charge or Current Charge


@<TRIPOS>ATOM
      1 Cl37         0.3030     1.6740    -3.0920 cl         1 XNZ      -0.194000
      2 C17          0.8440     0.6970    -1.7260 ca         1 XNZ       0.173000
      3 C18          2.2230     0.6190    -1.4780 ca         1 XNZ      -0.148000
      4 C19          2.7140    -0.1300    -0.4020 ca         1 XNZ       0.157100
      5 O22          4.0780    -0.1660    -0.2100 os         1 XNZ      -0.338100
      6 C23          4.6800    -0.9010     0.8690 c3         1 XNZ       0.211900
      7 C24          6.1910    -0.7250     0.7880 ca         1 XNZ      -0.098300
      8 C29          6.8190     0.3430     1.4590 ca         1 XNZ      -0.083500
      9 C28          8.2140     0.5040     1.3840 ca         1 XNZ      -0.115000
     10 C27          8.9890    -0.4010     0.6390 ca         1 XNZ      -0.097000
     11 C26          8.3670    -1.4670    -0.0330 ca         1 XNZ      -0.115000
     12 C25          6.9720    -1.6290     0.0410 ca         1 XNZ      -0.083500
     13 C20          1.8080    -0.8080     0.4380 ca         1 XNZ      -0.206000
     14 C21          0.4270    -0.7330     0.1940 ca         1 XNZ      -0.047000
     15 C16         -0.0750     0.0170    -0.8940 ca         1 XNZ      -0.110300
     16 C8          -1.5870     0.1230    -1.1620 c3         1 XNZ       0.230200
     17 N7          -2.1260     1.4470    -0.8000 n          1 XNZ      -0.243400
     18 C30         -3.1810     2.0020    -1.5650 c          1 XNZ       0.615100
     19 O32         -3.5710     1.4820    -2.6040 o          1 XNZ      -0.582100
     20 C31         -3.8580     3.2820    -1.0640 c3         1 XNZ      -0.175100
     21 C4          -1.6750     1.9740     0.4460 ca         1 XNZ      -0.026000
     22 C3          -1.0780     3.2490     0.4950 ca         1 XNZ      -0.115000
     23 C2          -0.6980     3.8080     1.7240 ca         1 XNZ      -0.084000
     24 C9          -2.4220    -0.9750    -0.5030 ce         1 XNZ      -0.325400
     25 C12         -2.7150    -2.1450    -1.3810 c          1 XNZ       0.594300
     26 O36         -2.6610    -2.1110    -2.6030 o          1 XNZ      -0.537100
     27 C13         -2.9560    -3.4560    -0.6450 c6         1 XNZ      -0.173400
     28 C14         -4.1320    -3.2660     0.3450 c6         1 XNZ      -0.031000
     29 C34         -5.4500    -2.9400    -0.4270 c3         1 XNZ      -0.089600
     30 C35         -4.3800    -4.5870     1.1330 c3         1 XNZ      -0.089600
     31 C15         -3.7830    -2.1040     1.3280 c6         1 XNZ      -0.057200
     32 C10         -2.9770    -0.9370     0.7400 c2         1 XNZ       0.212800
     33 N11         -2.7870     0.1180     1.6390 nu         1 XNZ      -0.849000
     34 C5          -1.9990     1.2950     1.6410 ca         1 XNZ       0.192000
     35 C6          -1.5840     1.8580     2.8790 ca         1 XNZ       0.109100
     36 O33         -1.7910     1.1970     4.0630 oh         1 XNZ      -0.538100
     37 C1          -0.9370     3.1040     2.9130 ca         1 XNZ      -0.125000
     38 H18          2.9170     1.1470    -2.1250 ha         1 XNZ       0.143000
     39 H23          4.3200    -0.5300     1.8380 h1         1 XNZ       0.041700
     40 H23A         4.4310    -1.9670     0.7970 h1         1 XNZ       0.041700
     41 H29          6.2260     1.0500     2.0360 ha         1 XNZ       0.114500
     42 H28          8.6940     1.3310     1.9040 ha         1 XNZ       0.114500
     43 H27         10.0680    -0.2750     0.5820 ha         1 XNZ       0.113000
     44 H26          8.9660    -2.1670    -0.6110 ha         1 XNZ       0.114500
     45 H25          6.4990    -2.4560    -0.4840 ha         1 XNZ       0.114500
     46 H20          2.1530    -1.3950     1.2840 ha         1 XNZ       0.118000
     47 H21         -0.2460    -1.2580     0.8660 ha         1 XNZ       0.114000
     48 H8          -1.6920     0.0240    -2.2500 h1         1 XNZ       0.121700
     49 H31         -4.0600     3.2010     0.0100 hc         1 XNZ       0.061700
     50 H31A        -3.1420     4.1080    -1.1210 hc         1 XNZ       0.061700
     51 H31B        -4.7630     3.5240    -1.6330 hc         1 XNZ       0.061700
     52 H3          -0.8740     3.7920    -0.4250 ha         1 XNZ       0.136000
     53 H2          -0.2100     4.7800     1.7540 ha         1 XNZ       0.124000
     54 H13         -3.1120    -4.2790    -1.3550 hc         1 XNZ       0.070200
     55 H13A        -2.0630    -3.6530    -0.0370 hc         1 XNZ       0.070200
     56 H34         -5.6790    -3.7130    -1.1710 hc         1 XNZ       0.041700
     57 H34A        -6.3080    -2.8770     0.2540 hc         1 XNZ       0.041700
     58 H34B        -5.3910    -1.9810    -0.9560 hc         1 XNZ       0.041700
     59 H35         -3.4860    -4.8970     1.6870 hc         1 XNZ       0.041700
     60 H35A        -5.1930    -4.4740     1.8600 hc         1 XNZ       0.041700
     61 H35B        -4.6490    -5.4100     0.4610 hc         1 XNZ       0.041700
     62 H15         -4.7030    -1.7240     1.7930 hc         1 XNZ       0.054200
     63 H15A        -3.1890    -2.5130     2.1570 hc         1 XNZ       0.054200
     64 HN11        -3.3590     0.0280     2.4800 hn         1 XNZ       0.488000
     65 HO33        -1.8130     0.2350     3.8690 ho         1 XNZ       0.464000
     66 H1          -0.6290     3.5280     3.8660 ha         1 XNZ       0.133000
@<TRIPOS>BOND
     1     1     2 1   
     2     2     3 ar  
     3     2    15 ar  
     4     3     4 ar  
     5     3    38 1   
     6     4     5 1   
     7     4    13 ar  
     8     5     6 1   
     9     6     7 1   
    10     6    39 1   
    11     6    40 1   
    12     7     8 ar  
    13     7    12 ar  
    14     8     9 ar  
    15     8    41 1   
    16     9    10 ar  
    17     9    42 1   
    18    10    11 ar  
    19    10    43 1   
    20    11    12 ar  
    21    11    44 1   
    22    12    45 1   
    23    13    14 ar  
    24    13    46 1   
    25    14    15 ar  
    26    14    47 1   
    27    15    16 1   
    28    16    17 1   
    29    16    24 1   
    30    16    48 1   
    31    17    18 1   
    32    17    21 1   
    33    18    19 2   
    34    18    20 1   
    35    20    49 1   
    36    20    50 1   
    37    20    51 1   
    38    21    22 ar  
    39    21    34 ar  
    40    22    23 ar  
    41    22    52 1   
    42    23    37 ar  
    43    23    53 1   
    44    24    25 1   
    45    24    32 2   
    46    25    26 2   
    47    25    27 1   
    48    27    28 1   
    49    27    54 1   
    50    27    55 1   
    51    28    29 1   
    52    28    30 1   
    53    28    31 1   
    54    29    56 1   
    55    29    57 1   
    56    29    58 1   
    57    30    59 1   
    58    30    60 1   
    59    30    61 1   
    60    31    32 1   
    61    31    62 1   
    62    31    63 1   
    63    32    33 1   
    64    33    34 1   
    65    33    64 1   
    66    34    35 ar  
    67    35    36 1   
    68    35    37 ar  
    69    36    65 1   
    70    37    66 1   
@<TRIPOS>SUBSTRUCTURE
     1 XNZ         1 TEMP              0 ****  ****    0 ROOT
