@<TRIPOS>MOLECULE
XNZ
   66    70     1     0     0
SMALL
abcg2


@<TRIPOS>ATOM
      1 CL37         0.2000     1.3920    -3.0640 cl         1 XNZ      -0.194000
      2 C17          0.8360     0.4640    -1.7410 ca         1 XNZ       0.173000
      3 C18          2.1990     0.4980    -1.5330 ca         1 XNZ      -0.148000
      4 C19          2.7510    -0.2160    -0.4680 ca         1 XNZ       0.157100
      5 O22          4.0830    -0.1100    -0.3190 os         1 XNZ      -0.338100
      6 C23          4.6930    -0.7390     0.8020 c3         1 XNZ       0.211900
      7 C24          6.1410    -0.3550     0.7940 ca         1 XNZ      -0.098300
      8 C29          6.5550     0.8330     1.3900 ca         1 XNZ      -0.083500
      9 C28          7.8900     1.2090     1.3570 ca         1 XNZ      -0.115000
     10 C27          8.8250     0.4000     0.7240 ca         1 XNZ      -0.097000
     11 C26          8.4210    -0.7860     0.1270 ca         1 XNZ      -0.115000
     12 C25          7.0840    -1.1600     0.1610 ca         1 XNZ      -0.083500
     13 C20          1.9170    -0.9700     0.3510 ca         1 XNZ      -0.206000
     14 C21          0.5500    -0.9780     0.1100 ca         1 XNZ      -0.047000
     15 C16         -0.0320    -0.2630    -0.9250 ca         1 XNZ      -0.110300
     16 C8          -1.5280    -0.2110    -1.1320 c3         1 XNZ       0.230200
     17 N7          -2.0170     1.1220    -0.7600 n          1 XNZ      -0.243400
     18 C30         -3.1000     1.6480    -1.3970 c          1 XNZ       0.615100
     19 O32         -3.6140     1.0820    -2.3480 o          1 XNZ      -0.582100
     20 C31         -3.6250     2.9560    -0.8620 c3         1 XNZ      -0.175100
     21 C4          -1.4850     1.6540     0.4310 ca         1 XNZ      -0.026000
     22 C3          -0.6270     2.7420     0.4240 ca         1 XNZ      -0.115000
     23 C2          -0.0900     3.1930     1.6180 ca         1 XNZ      -0.084000
     24 C9          -2.3170    -1.2790    -0.4260 ce         1 XNZ      -0.325400
     25 C12         -2.5410    -2.4970    -1.1820 c          1 XNZ       0.594300
     26 O36         -1.9900    -2.6810    -2.2620 o          1 XNZ      -0.537100
     27 C13         -3.4470    -3.5560    -0.6040 c6         1 XNZ      -0.173400
     28 C14         -4.5300    -2.9950     0.3120 c6         1 XNZ      -0.031000
     29 C34         -5.5280    -2.1510    -0.4840 c3         1 XNZ      -0.089600
     30 C35         -5.2770    -4.1360     0.9980 c3         1 XNZ      -0.089600
     31 C15         -3.8260    -2.1510     1.3710 c6         1 XNZ      -0.057200
     32 C10         -2.8890    -1.1200     0.8020 c2         1 XNZ       0.212800
     33 N11         -2.6880    -0.0840     1.6600 nu         1 XNZ      -0.849000
     34 C5          -1.7830     0.9860     1.6140 ca         1 XNZ       0.192000
     35 C6          -1.1850     1.4110     2.8080 ca         1 XNZ       0.109100
     36 O33         -1.4070     0.7850     3.9830 oh         1 XNZ      -0.538100
     37 C1          -0.3590     2.5260     2.8040 ca         1 XNZ      -0.125000
     38 H18          2.8430     1.0800    -2.1800 ha         1 XNZ       0.143000
     39 H23          4.2140    -0.4060     1.7290 h1         1 XNZ       0.041700
     40 H23A         4.5800    -1.8260     0.7370 h1         1 XNZ       0.041700
     41 H29          5.8300     1.4640     1.8910 ha         1 XNZ       0.114500
     42 H28          8.2020     2.1330     1.8270 ha         1 XNZ       0.114500
     43 H27          9.8680     0.6910     0.7020 ha         1 XNZ       0.113000
     44 H26          9.1460    -1.4230    -0.3640 ha         1 XNZ       0.114500
     45 H25          6.7730    -2.0890    -0.3020 ha         1 XNZ       0.114500
     46 H20          2.3030    -1.5480     1.1790 ha         1 XNZ       0.118000
     47 H21         -0.0850    -1.5640     0.7610 ha         1 XNZ       0.114000
     48 H8          -1.7190    -0.3290    -2.1990 h1         1 XNZ       0.121700
     49 H31         -3.8930     2.8750     0.1920 hc         1 XNZ       0.061700
     50 H31A        -2.8850     3.7510    -0.9460 hc         1 XNZ       0.061700
     51 H31B        -4.5090     3.2440    -1.4260 hc         1 XNZ       0.061700
     52 H3          -0.3890     3.2250    -0.5140 ha         1 XNZ       0.136000
     53 H2           0.5690     4.0500     1.6250 ha         1 XNZ       0.124000
     54 H13         -3.8810    -4.1300    -1.4260 hc         1 XNZ       0.070200
     55 H13A        -2.8150    -4.2540    -0.0390 hc         1 XNZ       0.070200
     56 H34         -6.0200    -2.7610    -1.2440 hc         1 XNZ       0.041700
     57 H34A        -6.3050    -1.7510     0.1700 hc         1 XNZ       0.041700
     58 H34B        -5.0550    -1.3080    -0.9920 hc         1 XNZ       0.041700
     59 H35         -4.5970    -4.7730     1.5650 hc         1 XNZ       0.041700
     60 H35A        -6.0310    -3.7500     1.6880 hc         1 XNZ       0.041700
     61 H35B        -5.7890    -4.7620     0.2650 hc         1 XNZ       0.041700
     62 H15         -4.5660    -1.6520     2.0050 hc         1 XNZ       0.054200
     63 H15A        -3.2470    -2.8050     2.0340 hc         1 XNZ       0.054200
     64 HN11        -3.3200    -0.0660     2.4480 hn         1 XNZ       0.488000
     65 HO33        -1.6530    -0.1370     3.8440 ho         1 XNZ       0.464000
     66 H1           0.0890     2.8530     3.7340 ha         1 XNZ       0.133000
@<TRIPOS>BOND
     1     1     2 1   
     2     2     3 ar  
     3     2    15 ar  
     4     3     4 ar  
     5     3    38 1   
     6     4     5 1   
     7     4    13 ar  
     8     5     6 1   
     9     6     7 1   
    10     6    39 1   
    11     6    40 1   
    12     7     8 ar  
    13     7    12 ar  
    14     8     9 ar  
    15     8    41 1   
    16     9    10 ar  
    17     9    42 1   
    18    10    11 ar  
    19    10    43 1   
    20    11    12 ar  
    21    11    44 1   
    22    12    45 1   
    23    13    14 ar  
    24    13    46 1   
    25    14    15 ar  
    26    14    47 1   
    27    15    16 1   
    28    16    17 1   
    29    16    24 1   
    30    16    48 1   
    31    17    18 1   
    32    17    21 1   
    33    18    19 2   
    34    18    20 1   
    35    20    49 1   
    36    20    50 1   
    37    20    51 1   
    38    21    22 ar  
    39    21    34 ar  
    40    22    23 ar  
    41    22    52 1   
    42    23    37 ar  
    43    23    53 1   
    44    24    25 1   
    45    24    32 2   
    46    25    26 2   
    47    25    27 1   
    48    27    28 1   
    49    27    54 1   
    50    27    55 1   
    51    28    29 1   
    52    28    30 1   
    53    28    31 1   
    54    29    56 1   
    55    29    57 1   
    56    29    58 1   
    57    30    59 1   
    58    30    60 1   
    59    30    61 1   
    60    31    32 1   
    61    31    62 1   
    62    31    63 1   
    63    32    33 1   
    64    33    34 1   
    65    33    64 1   
    66    34    35 ar  
    67    35    36 1   
    68    35    37 ar  
    69    36    65 1   
    70    37    66 1   
@<TRIPOS>SUBSTRUCTURE
     1 XNZ         1 TEMP              0 ****  ****    0 ROOT
