@<TRIPOS>MOLECULE
XO0
   79    85     1     0     0
SMALL
abcg2


@<TRIPOS>ATOM
      1 C10        -30.8200   -14.0250    16.2940 c3         1 XO0       0.156300
      2 C12        -31.5730   -15.6700    14.5850 c          1 XO0       0.587600
      3 C15        -33.4860   -14.6190    13.8020 ca         1 XO0      -0.143600
      4 C16        -34.6250   -14.4050    13.0560 ca         1 XO0      -0.046500
      5 C22        -29.4540   -12.5670    14.7580 ca         1 XO0      -0.111500
      6 C20        -32.8650   -13.7820    14.8540 c          1 XO0       0.587600
      7 C19        -33.0420   -16.7310    12.7230 ca         1 XO0      -0.046500
      8 C14        -32.7110   -15.7560    13.6390 ca         1 XO0      -0.143600
      9 C24        -23.1610   -13.0160    12.8920 ca         1 XO0      -0.140300
     10 C08        -28.3100   -14.1170    16.1840 ca         1 XO0      -0.111500
     11 C06        -27.0480   -12.6820    14.7200 ca         1 XO0      -0.122600
     12 C04        -25.7710   -12.1800    14.1520 c          1 XO0       0.603700
     13 C27        -21.8260   -10.7200    10.4410 cc         1 XO0      -0.057300
     14 C02        -23.4080   -12.3730    14.2320 c3         1 XO0       0.239600
     15 C01        -22.4110   -12.8320    15.2790 c3         1 XO0      -0.088100
     16 C07        -27.0900   -13.6790    15.6910 ca         1 XO0      -0.058500
     17 C09        -29.5010   -13.5660    15.7280 ca         1 XO0      -0.093300
     18 C17        -34.9690   -15.3830    12.1250 ca         1 XO0      -0.100500
     19 C18        -34.1920   -16.5260    11.9620 ca         1 XO0      -0.100500
     20 C23        -28.2420   -12.1320    14.2570 ca         1 XO0      -0.058500
     21 C25        -22.6470   -12.2970    11.8080 ca         1 XO0      -0.037200
     22 C31        -21.8380   -11.8840     9.7050 cd         1 XO0      -0.141400
     23 C32        -21.3800   -12.1210     8.3350 ca         1 XO0       0.012200
     24 C33        -20.0970   -11.7900     7.8970 ca         1 XO0      -0.045000
     25 C34        -19.7090   -12.1080     6.6120 ca         1 XO0      -0.145000
     26 C35        -20.6090   -12.7600     5.7710 ca         1 XO0       0.304300
     27 C36        -20.2310   -13.1120     4.3560 c3         1 XO0       0.120500
     28 C38        -18.4480   -13.7910     2.9000 c6         1 XO0       0.128300
     29 C39        -17.0580   -14.3960     2.8610 c6         1 XO0       0.152600
     30 C41        -17.4890   -15.6170     4.7880 c6         1 XO0       0.152600
     31 C42        -18.8880   -15.0390     4.8770 c6         1 XO0       0.128300
     32 C44        -22.2000   -12.7640     7.4120 ca         1 XO0       0.319900
     33 C45        -22.3610   -12.9060    10.5650 ca         1 XO0      -0.086800
     34 C46        -22.5940   -14.2750    10.4030 ca         1 XO0      -0.063000
     35 C47        -23.1090   -14.9900    11.4660 ca         1 XO0      -0.165000
     36 C48        -23.3870   -14.3670    12.6910 ca         1 XO0      -0.096000
     37 N11        -31.7390   -14.4770    15.2740 n          1 XO0      -0.392400
     38 N26        -22.3090   -10.9850    11.6930 na         1 XO0      -0.193700
     39 N37        -18.9200   -13.7190     4.2710 n3         1 XO0      -0.714600
     40 N43        -21.8330   -13.0770     6.1740 nb         1 XO0      -0.696000
     41 O03        -24.7110   -12.7300    14.7270 os         1 XO0      -0.454100
     42 O05        -25.7070   -11.3590    13.2700 o          1 XO0      -0.463000
     43 O29        -21.0950    -9.0730     8.9320 o          1 XO0      -0.701000
     44 O30        -21.5550    -8.4870    11.0430 o          1 XO0      -0.701000
     45 O40        -17.0320   -15.6750     3.4550 os         1 XO0      -0.460000
     46 H101       -31.3030   -13.2050    16.8280 h1         1 XO0       0.067700
     47 H102       -30.6680   -14.8270    17.0170 h1         1 XO0       0.067700
     48 H161       -35.2300   -13.5170    13.1820 ha         1 XO0       0.138000
     49 H221       -30.3690   -12.1150    14.3930 ha         1 XO0       0.115500
     50 H191       -32.4380   -17.6200    12.5960 ha         1 XO0       0.138000
     51 H081       -28.3310   -14.8990    16.9330 ha         1 XO0       0.115500
     52 H021       -23.3560   -11.2850    14.1490 h1         1 XO0       0.062700
     53 H013       -22.5960   -12.3450    16.2370 hc         1 XO0       0.044033
     54 H011       -22.4470   -13.9120    15.4200 hc         1 XO0       0.044033
     55 H012       -21.4050   -12.5680    14.9550 hc         1 XO0       0.044033
     56 H071       -26.1810   -14.1290    16.0660 ha         1 XO0       0.137000
     57 H171       -35.8550   -15.2540    11.5180 ha         1 XO0       0.119500
     58 H181       -34.4870   -17.2680    11.2320 ha         1 XO0       0.119500
     59 H231       -28.2230   -11.3550    13.5040 ha         1 XO0       0.137000
     60 H331       -19.4070   -11.3010     8.5700 ha         1 XO0       0.133000
     61 H341       -18.7140   -11.8700     6.2590 ha         1 XO0       0.120000
     62 H362       -20.2160   -12.1960     3.7570 h1         1 XO0       0.043200
     63 H361       -21.0220   -13.7510     3.9310 h1         1 XO0       0.043200
     64 H381       -18.4100   -12.7840     2.4760 h1         1 XO0       0.042200
     65 H382       -19.1260   -14.3870     2.2640 h1         1 XO0       0.042200
     66 H391       -16.3550   -13.7210     3.3700 h1         1 XO0       0.045950
     67 H392       -16.7270   -14.5080     1.8280 h1         1 XO0       0.045950
     68 H412       -17.4790   -16.6340     5.1820 h1         1 XO0       0.045950
     69 H411       -16.8070   -15.0100     5.4010 h1         1 XO0       0.045950
     70 H421       -19.6060   -15.7220     4.3910 h1         1 XO0       0.042200
     71 H422       -19.1710   -14.9690     5.9290 h1         1 XO0       0.042200
     72 H441       -23.2120   -13.0380     7.6930 h4         1 XO0       0.014100
     73 H461       -22.3740   -14.7680     9.4640 ha         1 XO0       0.108000
     74 H471       -23.3000   -16.0500    11.3590 ha         1 XO0       0.094000
     75 H481       -23.7850   -14.9670    13.5000 ha         1 XO0       0.097000
     76 H261       -22.4020   -10.2610    12.3870 hn         1 XO0       0.371000
     77 O13        -30.6700   -16.4470    14.7580 o          1 XO0      -0.482500
     78 O21        -33.2290   -12.7160    15.2780 o          1 XO0      -0.482500
     79 C28        -21.4510    -9.2960    10.1000 c          1 XO0       0.725200
@<TRIPOS>BOND
     1     1    17 1   
     2     1    37 1   
     3     1    46 1   
     4     1    47 1   
     5     2     8 1   
     6     2    37 1   
     7     2    77 2   
     8     3     4 ar  
     9     3     6 1   
    10     3     8 ar  
    11     4    18 ar  
    12     4    48 1   
    13     5    17 ar  
    14     5    20 ar  
    15     5    49 1   
    16     6    37 1   
    17     6    78 2   
    18     7     8 ar  
    19     7    19 ar  
    20     7    50 1   
    21     9    14 1   
    22     9    21 ar  
    23     9    36 ar  
    24    10    16 ar  
    25    10    17 ar  
    26    10    51 1   
    27    11    12 1   
    28    11    16 ar  
    29    11    20 ar  
    30    12    41 1   
    31    12    42 2   
    32    13    22 2   
    33    13    38 1   
    34    13    79 1   
    35    14    15 1   
    36    14    41 1   
    37    14    52 1   
    38    15    53 1   
    39    15    54 1   
    40    15    55 1   
    41    16    56 1   
    42    18    19 ar  
    43    18    57 1   
    44    19    58 1   
    45    20    59 1   
    46    21    33 ar  
    47    21    38 1   
    48    22    23 1   
    49    22    33 1   
    50    23    24 ar  
    51    23    32 ar  
    52    24    25 ar  
    53    24    60 1   
    54    25    26 ar  
    55    25    61 1   
    56    26    27 1   
    57    26    40 ar  
    58    27    39 1   
    59    27    62 1   
    60    27    63 1   
    61    28    29 1   
    62    28    39 1   
    63    28    64 1   
    64    28    65 1   
    65    29    45 1   
    66    29    66 1   
    67    29    67 1   
    68    30    31 1   
    69    30    45 1   
    70    30    68 1   
    71    30    69 1   
    72    31    39 1   
    73    31    70 1   
    74    31    71 1   
    75    32    40 ar  
    76    32    72 1   
    77    33    34 ar  
    78    34    35 ar  
    79    34    73 1   
    80    35    36 ar  
    81    35    74 1   
    82    36    75 1   
    83    38    76 1   
    84    43    79 1   
    85    44    79 1   
@<TRIPOS>SUBSTRUCTURE
     1 XO0         1 TEMP              0 ****  ****    0 ROOT
