@<TRIPOS>MOLECULE
XO0
   79    85     1     0     0
SMALL
No Charge or Current Charge


@<TRIPOS>ATOM
      1 C10        -31.1050   -13.2010    16.0460 c3         1 XO0       0.156300
      2 C12        -31.7980   -15.4790    15.2170 c          1 XO0       0.587600
      3 C15        -33.0650   -14.8520    13.3550 ca         1 XO0      -0.143600
      4 C16        -33.8640   -14.9900    12.2110 ca         1 XO0      -0.046500
      5 C22        -29.4030   -11.8050    14.7750 ca         1 XO0      -0.111500
      6 C20        -32.5470   -13.6230    14.0230 c          1 XO0       0.587600
      7 C19        -32.9460   -17.2650    13.6750 ca         1 XO0      -0.046500
      8 C14        -32.6180   -15.9590    14.0670 ca         1 XO0      -0.143600
      9 C24        -23.1990   -13.2960    12.9020 ca         1 XO0      -0.140300
     10 C08        -28.6210   -13.7420    16.0110 ca         1 XO0      -0.111500
     11 C06        -27.0210   -12.3710    14.7640 ca         1 XO0      -0.122600
     12 C04        -25.6130   -12.0690    14.3040 c          1 XO0       0.603700
     13 C27        -21.6960   -10.7470    10.7160 cc         1 XO0      -0.057300
     14 C02        -23.3130   -12.8140    14.3530 c3         1 XO0       0.239600
     15 C01        -22.4530   -13.6550    15.3160 c3         1 XO0      -0.088100
     16 C07        -27.3040   -13.4780    15.5970 ca         1 XO0      -0.058500
     17 C09        -29.6780   -12.9070    15.6050 ca         1 XO0      -0.093300
     18 C17        -34.2050   -16.2970    11.7990 ca         1 XO0      -0.100500
     19 C18        -33.7500   -17.4250    12.5260 ca         1 XO0      -0.100500
     20 C23        -28.0880   -11.5380    14.3580 ca         1 XO0      -0.058500
     21 C25        -22.6680   -12.4820    11.8820 ca         1 XO0      -0.037200
     22 C31        -21.9610   -11.8150     9.8410 cd         1 XO0      -0.141400
     23 C32        -21.4720   -12.0020     8.4540 ca         1 XO0       0.012200
     24 C33        -20.1850   -11.5850     8.0600 ca         1 XO0      -0.045000
     25 C34        -19.7690   -11.8140     6.7380 ca         1 XO0      -0.145000
     26 C35        -20.6390   -12.4550     5.8360 ca         1 XO0       0.304300
     27 C36        -20.2010   -12.7180     4.3850 c3         1 XO0       0.120500
     28 C38        -18.4950   -13.6180     2.8120 c6         1 XO0       0.128300
     29 C39        -17.1930   -14.4650     2.6810 c6         1 XO0       0.152600
     30 C41        -17.7650   -15.7240     4.6540 c6         1 XO0       0.152600
     31 C42        -19.0780   -14.9040     4.8300 c6         1 XO0       0.128300
     32 C44        -22.2720   -12.6430     7.4800 ca         1 XO0       0.319900
     33 C45        -22.5630   -12.9120    10.5860 ca         1 XO0      -0.086800
     34 C46        -22.9540   -14.2090    10.2110 ca         1 XO0      -0.063000
     35 C47        -23.4980   -15.0470    11.2030 ca         1 XO0      -0.165000
     36 C48        -23.6260   -14.5950    12.5350 ca         1 XO0      -0.096000
     37 N11        -31.8140   -14.0890    15.1120 n          1 XO0      -0.392400
     38 N26        -22.1610   -11.1980    11.9700 na         1 XO0      -0.193700
     39 N37        -18.9620   -13.5350     4.2310 n3         1 XO0      -0.714600
     40 N43        -21.8800   -12.8640     6.2000 nb         1 XO0      -0.696000
     41 O03        -24.6760   -12.9480    14.7880 os         1 XO0      -0.454100
     42 O05        -25.3430   -11.1180    13.5800 o          1 XO0      -0.463000
     43 O29        -20.9410    -9.0430     9.2510 o          1 XO0      -0.701000
     44 O30        -20.9600    -8.6300    11.3500 o          1 XO0      -0.701000
     45 O40        -17.3860   -15.7790     3.2570 os         1 XO0      -0.460000
     46 H101       -31.6600   -12.2590    16.1400 h1         1 XO0       0.067700
     47 H102       -31.0910   -13.6630    17.0430 h1         1 XO0       0.067700
     48 H161       -34.2090   -14.1190    11.6580 ha         1 XO0       0.138000
     49 H221       -30.2110   -11.1540    14.4480 ha         1 XO0       0.115500
     50 H191       -32.5920   -18.1270    14.2380 ha         1 XO0       0.138000
     51 H081       -28.8190   -14.6010    16.6480 ha         1 XO0       0.115500
     52 H021       -22.9840   -11.7700    14.4380 h1         1 XO0       0.062700
     53 H013       -22.5300   -13.2640    16.3370 hc         1 XO0       0.044033
     54 H011       -22.7730   -14.7030    15.3210 hc         1 XO0       0.044033
     55 H012       -21.4000   -13.6170    15.0140 hc         1 XO0       0.044033
     56 H071       -26.5090   -14.1440    15.9270 ha         1 XO0       0.137000
     57 H171       -34.8240   -16.4380    10.9160 ha         1 XO0       0.119500
     58 H181       -34.0220   -18.4250    12.1950 ha         1 XO0       0.119500
     59 H231       -27.9010   -10.6800    13.7160 ha         1 XO0       0.137000
     60 H331       -19.5050   -11.1230     8.7700 ha         1 XO0       0.133000
     61 H341       -18.7780   -11.5110     6.4130 ha         1 XO0       0.120000
     62 H362       -20.0510   -11.7390     3.9100 h1         1 XO0       0.043200
     63 H361       -21.0280   -13.2010     3.8460 h1         1 XO0       0.043200
     64 H381       -18.3030   -12.6110     2.4140 h1         1 XO0       0.042200
     65 H382       -19.2740   -14.0710     2.1800 h1         1 XO0       0.042200
     66 H391       -16.3630   -13.9610     3.1970 h1         1 XO0       0.045950
     67 H392       -16.9220   -14.5730     1.6210 h1         1 XO0       0.045950
     68 H412       -17.9090   -16.7480     5.0290 h1         1 XO0       0.045950
     69 H411       -16.9520   -15.2600     5.2320 h1         1 XO0       0.045950
     70 H421       -19.9040   -15.4580     4.3580 h1         1 XO0       0.042200
     71 H422       -19.3070   -14.8380     5.9040 h1         1 XO0       0.042200
     72 H441       -23.2850   -12.9640     7.7210 h4         1 XO0       0.014100
     73 H461       -22.8370   -14.5760     9.1960 ha         1 XO0       0.108000
     74 H471       -23.8170   -16.0540    10.9420 ha         1 XO0       0.094000
     75 H481       -24.0500   -15.2600    13.2840 ha         1 XO0       0.097000
     76 H261       -22.1420   -10.6340    12.8120 hn         1 XO0       0.371000
     77 O13        -31.2370   -16.1510    16.0690 o          1 XO0      -0.482500
     78 O21        -32.7260   -12.4600    13.6930 o          1 XO0      -0.482500
     79 C28        -21.1380    -9.3900    10.4060 c          1 XO0       0.725200
@<TRIPOS>BOND
     1     1    17 1   
     2     1    37 1   
     3     1    46 1   
     4     1    47 1   
     5     2     8 1   
     6     2    37 1   
     7     2    77 2   
     8     3     4 ar  
     9     3     6 1   
    10     3     8 ar  
    11     4    18 ar  
    12     4    48 1   
    13     5    17 ar  
    14     5    20 ar  
    15     5    49 1   
    16     6    37 1   
    17     6    78 2   
    18     7     8 ar  
    19     7    19 ar  
    20     7    50 1   
    21     9    14 1   
    22     9    21 ar  
    23     9    36 ar  
    24    10    16 ar  
    25    10    17 ar  
    26    10    51 1   
    27    11    12 1   
    28    11    16 ar  
    29    11    20 ar  
    30    12    41 1   
    31    12    42 2   
    32    13    22 2   
    33    13    38 1   
    34    13    79 1   
    35    14    15 1   
    36    14    41 1   
    37    14    52 1   
    38    15    53 1   
    39    15    54 1   
    40    15    55 1   
    41    16    56 1   
    42    18    19 ar  
    43    18    57 1   
    44    19    58 1   
    45    20    59 1   
    46    21    33 ar  
    47    21    38 1   
    48    22    23 1   
    49    22    33 1   
    50    23    24 ar  
    51    23    32 ar  
    52    24    25 ar  
    53    24    60 1   
    54    25    26 ar  
    55    25    61 1   
    56    26    27 1   
    57    26    40 ar  
    58    27    39 1   
    59    27    62 1   
    60    27    63 1   
    61    28    29 1   
    62    28    39 1   
    63    28    64 1   
    64    28    65 1   
    65    29    45 1   
    66    29    66 1   
    67    29    67 1   
    68    30    31 1   
    69    30    45 1   
    70    30    68 1   
    71    30    69 1   
    72    31    39 1   
    73    31    70 1   
    74    31    71 1   
    75    32    40 ar  
    76    32    72 1   
    77    33    34 ar  
    78    34    35 ar  
    79    34    73 1   
    80    35    36 ar  
    81    35    74 1   
    82    36    75 1   
    83    38    76 1   
    84    43    79 1   
    85    44    79 1   
@<TRIPOS>SUBSTRUCTURE
     1 XO0         1 TEMP              0 ****  ****    0 ROOT
