@<TRIPOS>MOLECULE
XO1
   65    68     1     0     0
SMALL
No Charge or Current Charge


@<TRIPOS>ATOM
      1 C10         32.5140   -40.8250    -4.9140 ca         1 XO1      -0.088000
      2 C21         36.6200   -36.8080    -3.5970 c6         1 XO1       0.091800
      3 C24         37.6500   -33.4410    -5.0310 cc         1 XO1      -0.203300
      4 C02         38.3570   -38.2060    -8.6590 c3         1 XO1      -0.075400
      5 C03         37.2330   -37.3230    -8.0750 c3         1 XO1      -0.074400
      6 C04         37.4080   -37.0480    -6.5620 c3         1 XO1      -0.107400
      7 C05         36.3560   -36.0690    -5.9380 c6         1 XO1       0.167500
      8 C06         34.9150   -36.6560    -5.9570 c6         1 XO1       0.122000
      9 C08         33.5780   -38.6450    -5.2410 ca         1 XO1      -0.028000
     10 C09         33.6180   -39.9720    -4.7620 ca         1 XO1      -0.099000
     11 C11         31.3340   -40.3460    -5.5000 ca         1 XO1      -0.103000
     12 C12         31.2400   -39.0100    -5.9160 ca         1 XO1       0.132100
     13 C18         32.3560   -38.1550    -5.7590 ca         1 XO1      -0.138000
     14 C19         35.3440   -37.6930    -3.7020 c          1 XO1       0.573000
     15 C23         37.8600   -34.7780    -4.3720 c3         1 XO1       0.256100
     16 C25         38.1110   -33.0010    -6.2450 cd         1 XO1       0.238900
     17 C27         36.9200   -31.3850    -5.4570 cc         1 XO1       0.396400
     18 C30         35.0070   -33.3020    -3.1100 ca         1 XO1      -0.052300
     19 C31         34.8840   -34.1520    -1.9940 ca         1 XO1      -0.128000
     20 C32         33.8150   -35.0600    -1.9000 ca         1 XO1      -0.041000
     21 C33         32.8480   -35.1210    -2.9210 ca         1 XO1      -0.047000
     22 C34         31.7670   -36.0600    -2.8250 cg         1 XO1       0.317000
     23 C36         32.9560   -34.2560    -4.0270 ca         1 XO1       0.207000
     24 C38         34.0290   -33.3550    -4.1230 ca         1 XO1      -0.130000
     25 F37         32.0410   -34.2940    -5.0230 f          1 XO1      -0.160000
     26 N07         34.6540   -37.7240    -4.9480 n          1 XO1      -0.244400
     27 N22         36.6790   -35.6530    -4.5440 n3         1 XO1      -0.731600
     28 N26         37.6580   -31.7230    -6.5060 nd         1 XO1      -0.664000
     29 N28         36.8930   -32.4000    -4.5240 na         1 XO1      -0.161500
     30 N35         30.8880   -36.8220    -2.7290 n1         1 XO1      -0.418000
     31 O13         30.0330   -38.6010    -6.4540 os         1 XO1      -0.404100
     32 H1          32.5720   -41.8550    -4.5690 ha         1 XO1       0.124000
     33 H2          37.4760   -37.4790    -3.7530 h1         1 XO1       0.061700
     34 H3          36.6680   -36.4510    -2.5590 h1         1 XO1       0.061700
     35 H4          39.0020   -39.1140   -10.5340 hc         1 XO1       0.033700
     36 H5          37.2370   -39.0080   -10.3560 hc         1 XO1       0.033700
     37 H6          38.1830   -37.5490   -10.7360 hc         1 XO1       0.033700
     38 H7          38.3860   -39.1610    -8.1210 hc         1 XO1       0.037200
     39 H8          39.3260   -37.7170    -8.4980 hc         1 XO1       0.037200
     40 H9          37.2080   -36.3680    -8.6140 hc         1 XO1       0.040700
     41 H10         36.2720   -37.8190    -8.2540 hc         1 XO1       0.040700
     42 H11         37.3910   -38.0090    -6.0340 hc         1 XO1       0.045200
     43 H12         38.4160   -36.6420    -6.4210 hc         1 XO1       0.045200
     44 H13         36.3370   -35.1780    -6.5830 h1         1 XO1       0.080700
     45 H14         34.2200   -35.8310    -5.7620 h1         1 XO1       0.055700
     46 H15         34.6760   -37.0310    -6.9600 h1         1 XO1       0.055700
     47 H16         34.5210   -40.3590    -4.2970 ha         1 XO1       0.127000
     48 H17         30.4780   -41.0070    -5.6150 ha         1 XO1       0.136000
     49 H18         32.2850   -37.1100    -6.0360 ha         1 XO1       0.139000
     50 H19         38.7680   -35.2480    -4.7700 h1         1 XO1       0.046700
     51 H20         38.0400   -34.6030    -3.3020 h1         1 XO1       0.046700
     52 H21         38.7340   -33.5370    -6.9500 h4         1 XO1       0.038100
     53 H22         36.4010   -30.4450    -5.3100 h5         1 XO1       0.056100
     54 H23         36.9350   -32.5970    -2.4390 h1         1 XO1       0.068200
     55 H24         35.8580   -31.3320    -3.0370 h1         1 XO1       0.068200
     56 H25         35.6300   -34.1250    -1.2030 ha         1 XO1       0.121000
     57 H26         33.7450   -35.7200    -1.0370 ha         1 XO1       0.137000
     58 H27         34.1030   -32.7090    -4.9940 ha         1 XO1       0.144000
     59 O20         34.9700   -38.3450    -2.7320 o          1 XO1      -0.548000
     60 C14         29.7670   -37.2650    -6.9260 c3         1 XO1       0.520000
     61 C29         36.2030   -32.3580    -3.2200 c3         1 XO1       0.116900
     62 C01         38.1820   -38.4850   -10.1650 c3         1 XO1      -0.089100
     63 F15         30.6050   -36.9000    -7.9240 f          1 XO1      -0.107000
     64 F16         28.5110   -37.1760    -7.4170 f          1 XO1      -0.107000
     65 F17         29.8680   -36.3460    -5.9390 f          1 XO1      -0.107000
@<TRIPOS>BOND
     1     1    10 ar  
     2     1    11 ar  
     3     1    32 1   
     4     2    14 1   
     5     2    27 1   
     6     2    33 1   
     7     2    34 1   
     8     3    15 1   
     9     3    16 2   
    10     3    29 1   
    11     4     5 1   
    12     4    38 1   
    13     4    39 1   
    14     4    62 1   
    15     5     6 1   
    16     5    40 1   
    17     5    41 1   
    18     6     7 1   
    19     6    42 1   
    20     6    43 1   
    21     7     8 1   
    22     7    27 1   
    23     7    44 1   
    24     8    26 1   
    25     8    45 1   
    26     8    46 1   
    27     9    10 ar  
    28     9    13 ar  
    29     9    26 1   
    30    10    47 1   
    31    11    12 ar  
    32    11    48 1   
    33    12    13 ar  
    34    12    31 1   
    35    13    49 1   
    36    14    26 1   
    37    14    59 2   
    38    15    27 1   
    39    15    50 1   
    40    15    51 1   
    41    16    28 1   
    42    16    52 1   
    43    17    28 2   
    44    17    29 1   
    45    17    53 1   
    46    18    19 ar  
    47    18    24 ar  
    48    18    61 1   
    49    19    20 ar  
    50    19    56 1   
    51    20    21 ar  
    52    20    57 1   
    53    21    22 1   
    54    21    23 ar  
    55    22    30 3   
    56    23    24 ar  
    57    23    25 1   
    58    24    58 1   
    59    29    61 1   
    60    31    60 1   
    61    35    62 1   
    62    36    62 1   
    63    37    62 1   
    64    54    61 1   
    65    55    61 1   
    66    60    63 1   
    67    60    64 1   
    68    60    65 1   
@<TRIPOS>SUBSTRUCTURE
     1 XO1         1 TEMP              0 ****  ****    0 ROOT
