@<TRIPOS>MOLECULE
XO1
   65    68     1     0     0
SMALL
abcg2


@<TRIPOS>ATOM
      1 C10         32.7050   -40.7250    -5.8890 ca         1 XO1      -0.088000
      2 C21         36.4240   -36.7630    -3.7350 c6         1 XO1       0.091800
      3 C24         37.5180   -33.5270    -5.1640 cc         1 XO1      -0.203300
      4 C02         38.5730   -38.4110    -8.4300 c3         1 XO1      -0.075400
      5 C03         37.5240   -37.3880    -8.0150 c3         1 XO1      -0.074400
      6 C04         37.4100   -37.2480    -6.5020 c3         1 XO1      -0.107400
      7 C05         36.3740   -36.2000    -6.0670 c6         1 XO1       0.167500
      8 C06         34.9460   -36.6970    -6.1910 c6         1 XO1       0.122000
      9 C08         33.5390   -38.5380    -5.3710 ca         1 XO1      -0.028000
     10 C09         33.7750   -39.8780    -5.6450 ca         1 XO1      -0.099000
     11 C11         31.4050   -40.2400    -5.8780 ca         1 XO1      -0.103000
     12 C12         31.1900   -38.9000    -5.6060 ca         1 XO1       0.132100
     13 C18         32.2430   -38.0380    -5.3460 ca         1 XO1      -0.138000
     14 C19         35.2420   -37.6850    -3.9340 c          1 XO1       0.573000
     15 C23         37.6690   -34.8430    -4.4860 c3         1 XO1       0.256100
     16 C25         37.9650   -33.0830    -6.3780 cd         1 XO1       0.238900
     17 C27         36.8600   -31.4690    -5.5550 cc         1 XO1       0.396400
     18 C30         35.0150   -33.2710    -3.1330 ca         1 XO1      -0.052300
     19 C31         34.8780   -33.9750    -1.9410 ca         1 XO1      -0.128000
     20 C32         33.7660   -34.7630    -1.7100 ca         1 XO1      -0.041000
     21 C33         32.7710   -34.8580    -2.6810 ca         1 XO1      -0.047000
     22 C34         31.6120   -35.6540    -2.4660 cg         1 XO1       0.317000
     23 C36         32.9250   -34.1460    -3.8660 ca         1 XO1       0.207000
     24 C38         34.0250   -33.3560    -4.1060 ca         1 XO1      -0.130000
     25 F37         31.9700   -34.2490    -4.7910 f          1 XO1      -0.160000
     26 N07         34.6290   -37.6600    -5.1400 n          1 XO1      -0.244400
     27 N22         36.5200   -35.7040    -4.7080 n3         1 XO1      -0.731600
     28 N26         37.5480   -31.8040    -6.6130 nd         1 XO1      -0.664000
     29 N28         36.8060   -32.4700    -4.6460 na         1 XO1      -0.161500
     30 N35         30.6760   -36.2990    -2.2780 n1         1 XO1      -0.418000
     31 O13         29.8650   -38.5000    -5.5500 os         1 XO1      -0.404100
     32 H1          32.8810   -41.7710    -6.1000 ha         1 XO1       0.124000
     33 H2          37.3160   -37.4110    -3.6970 h1         1 XO1       0.061700
     34 H3          36.3250   -36.3290    -2.7370 h1         1 XO1       0.061700
     35 H4          39.4610   -39.2840   -10.2120 hc         1 XO1       0.033700
     36 H5          37.7600   -38.8610   -10.3900 hc         1 XO1       0.033700
     37 H6          38.9860   -37.5980   -10.3990 hc         1 XO1       0.033700
     38 H7          38.3220   -39.3830    -7.9930 hc         1 XO1       0.037200
     39 H8          39.5400   -38.1290    -8.0020 hc         1 XO1       0.037200
     40 H9          37.7750   -36.4140    -8.4490 hc         1 XO1       0.040700
     41 H10         36.5580   -37.6700    -8.4460 hc         1 XO1       0.040700
     42 H11         37.1790   -38.2240    -6.0640 hc         1 XO1       0.045200
     43 H12         38.3930   -36.9690    -6.1090 hc         1 XO1       0.045200
     44 H13         36.4550   -35.3390    -6.7380 h1         1 XO1       0.080700
     45 H14         34.2580   -35.8480    -6.1420 h1         1 XO1       0.055700
     46 H15         34.7920   -37.1850    -7.1540 h1         1 XO1       0.055700
     47 H16         34.7900   -40.2510    -5.6690 ha         1 XO1       0.127000
     48 H17         30.5670   -40.8960    -6.0750 ha         1 XO1       0.136000
     49 H18         32.0850   -36.9930    -5.1220 ha         1 XO1       0.139000
     50 H19         38.6140   -35.2960    -4.8170 h1         1 XO1       0.046700
     51 H20         37.7780   -34.7000    -3.4070 h1         1 XO1       0.046700
     52 H21         38.5640   -33.6320    -7.0900 h4         1 XO1       0.038100
     53 H22         36.3840   -30.5160    -5.3780 h5         1 XO1       0.056100
     54 H23         36.9680   -32.6030    -2.5780 h1         1 XO1       0.068200
     55 H24         35.9170   -31.3420    -3.1800 h1         1 XO1       0.068200
     56 H25         35.6510   -33.9110    -1.1870 ha         1 XO1       0.121000
     57 H26         33.6650   -35.3110    -0.7830 ha         1 XO1       0.137000
     58 H27         34.1070   -32.8260    -5.0460 ha         1 XO1       0.144000
     59 O20         34.9000   -38.4460    -3.0430 o          1 XO1      -0.548000
     60 C14         29.4440   -37.3860    -6.1610 c3         1 XO1       0.520000
     61 C29         36.2130   -32.3820    -3.3330 c3         1 XO1       0.116900
     62 C01         38.7040   -38.5480    -9.9400 c3         1 XO1      -0.089100
     63 F15         30.0710   -37.1580    -7.3120 f          1 XO1      -0.107000
     64 F16         28.1480   -37.5210    -6.4010 f          1 XO1      -0.107000
     65 F17         29.5990   -36.2950    -5.4060 f          1 XO1      -0.107000
@<TRIPOS>BOND
     1     1    10 ar  
     2     1    11 ar  
     3     1    32 1   
     4     2    14 1   
     5     2    27 1   
     6     2    33 1   
     7     2    34 1   
     8     3    15 1   
     9     3    16 2   
    10     3    29 1   
    11     4     5 1   
    12     4    38 1   
    13     4    39 1   
    14     4    62 1   
    15     5     6 1   
    16     5    40 1   
    17     5    41 1   
    18     6     7 1   
    19     6    42 1   
    20     6    43 1   
    21     7     8 1   
    22     7    27 1   
    23     7    44 1   
    24     8    26 1   
    25     8    45 1   
    26     8    46 1   
    27     9    10 ar  
    28     9    13 ar  
    29     9    26 1   
    30    10    47 1   
    31    11    12 ar  
    32    11    48 1   
    33    12    13 ar  
    34    12    31 1   
    35    13    49 1   
    36    14    26 1   
    37    14    59 2   
    38    15    27 1   
    39    15    50 1   
    40    15    51 1   
    41    16    28 1   
    42    16    52 1   
    43    17    28 2   
    44    17    29 1   
    45    17    53 1   
    46    18    19 ar  
    47    18    24 ar  
    48    18    61 1   
    49    19    20 ar  
    50    19    56 1   
    51    20    21 ar  
    52    20    57 1   
    53    21    22 1   
    54    21    23 ar  
    55    22    30 3   
    56    23    24 ar  
    57    23    25 1   
    58    24    58 1   
    59    29    61 1   
    60    31    60 1   
    61    35    62 1   
    62    36    62 1   
    63    37    62 1   
    64    54    61 1   
    65    55    61 1   
    66    60    63 1   
    67    60    64 1   
    68    60    65 1   
@<TRIPOS>SUBSTRUCTURE
     1 XO1         1 TEMP              0 ****  ****    0 ROOT
