@<TRIPOS>MOLECULE
XO3
   37    39     1     0     0
SMALL
bcc


@<TRIPOS>ATOM
      1 C1           1.2540    -1.7840    -0.6560 c6         1 XO3      -0.070400
      2 C2          -0.2040    -2.0030    -1.0230 c6         1 XO3       0.160800
      3 N3          -1.0680    -1.3190    -0.0780 n7         1 XO3      -0.809200
      4 C4          -0.8730     0.1200    -0.0950 c6         1 XO3       0.177500
      5 C5           0.5650     0.4360     0.3030 c6         1 XO3      -0.069400
      6 C6           1.5530    -0.2800    -0.6260 c6         1 XO3      -0.016500
      7 C7           2.9640     0.0040    -0.2630 cc         1 XO3       0.109900
      8 O8           3.3620    -0.3990     0.9540 os         1 XO3      -0.111200
      9 N9           4.7080    -0.1310     1.0300 ns         1 XO3      -0.406400
     10 C10          5.1190     0.5950    -0.0720 c          1 XO3       0.677700
     11 C11          3.9650     0.5950    -0.9420 cd         1 XO3      -0.345200
     12 O12          6.2390     1.0630    -0.2020 o          1 XO3      -0.591500
     13 C13         -1.8510     0.8040     0.8630 c3         1 XO3      -0.031100
     14 C14         -3.2890     0.5910     0.4820 ca         1 XO3      -0.088300
     15 C15         -4.0620    -0.3850     1.1080 ca         1 XO3      -0.125500
     16 C16         -5.3810    -0.6020     0.7280 ca         1 XO3      -0.128000
     17 C17         -5.9470     0.1560    -0.2870 ca         1 XO3      -0.128000
     18 C18         -5.1870     1.1330    -0.9190 ca         1 XO3      -0.128000
     19 C19         -3.8700     1.3460    -0.5370 ca         1 XO3      -0.125500
     20 H11C         1.4540    -2.2280     0.3220 hc         1 XO3       0.060200
     21 H12C         1.8980    -2.2820    -1.3830 hc         1 XO3       0.060200
     22 H21C        -0.3630    -1.6630    -2.0600 h1         1 XO3       0.033200
     23 H22C        -0.4330    -3.0700    -1.0010 h1         1 XO3       0.033200
     24 H6           1.4170     0.1130    -1.6390 hc         1 XO3       0.066700
     25 H3          -2.0330    -1.5290    -0.3030 hn         1 XO3       0.367800
     26 H4          -1.0400     0.5380    -1.1050 h1         1 XO3       0.020700
     27 H51C         0.7240     1.5160     0.2610 hc         1 XO3       0.056200
     28 H52C         0.7230     0.1190     1.3380 hc         1 XO3       0.056200
     29 H131        -1.6730     0.4310     1.8750 hc         1 XO3       0.056200
     30 H132        -1.6260     1.8740     0.8720 hc         1 XO3       0.056200
     31 H11          3.9120     1.0140    -1.9320 ha         1 XO3       0.183000
     32 H9           4.9980     0.0720     1.9780 hn         1 XO3       0.340500
     33 H15         -3.6280    -0.9790     1.9040 ha         1 XO3       0.132000
     34 H19         -3.2840     2.1120    -1.0310 ha         1 XO3       0.132000
     35 H16         -5.9670    -1.3630     1.2270 ha         1 XO3       0.131500
     36 H17         -6.9760    -0.0100    -0.5830 ha         1 XO3       0.131000
     37 H18         -5.6230     1.7320    -1.7090 ha         1 XO3       0.131500
@<TRIPOS>BOND
     1     1     2 1   
     2     1     6 1   
     3     1    20 1   
     4     1    21 1   
     5     2     3 1   
     6     2    22 1   
     7     2    23 1   
     8     3     4 1   
     9     3    25 1   
    10     4     5 1   
    11     4    13 1   
    12     4    26 1   
    13     5     6 1   
    14     5    27 1   
    15     5    28 1   
    16     6     7 1   
    17     6    24 1   
    18     7     8 1   
    19     7    11 2   
    20     8     9 1   
    21     9    10 1   
    22     9    32 1   
    23    10    11 1   
    24    10    12 2   
    25    11    31 1   
    26    13    14 1   
    27    13    29 1   
    28    13    30 1   
    29    14    15 ar  
    30    14    19 ar  
    31    15    16 ar  
    32    15    33 1   
    33    16    17 ar  
    34    16    35 1   
    35    17    18 ar  
    36    17    36 1   
    37    18    19 ar  
    38    18    37 1   
    39    19    34 1   
@<TRIPOS>SUBSTRUCTURE
     1 XO3         1 TEMP              0 ****  ****    0 ROOT
