@<TRIPOS>MOLECULE
XO3
   37    39     1     0     0
SMALL
No Charge or Current Charge


@<TRIPOS>ATOM
      1 C1           1.2880    -1.8010    -0.7140 c6         1 XO3      -0.070400
      2 C2          -0.1960    -2.0550    -1.0720 c6         1 XO3       0.160800
      3 N3          -1.0980    -1.3730    -0.1160 n7         1 XO3      -0.864400
      4 C4          -0.8770     0.0910    -0.0540 c6         1 XO3       0.177500
      5 C5           0.5900     0.4040     0.3440 c6         1 XO3      -0.069400
      6 C6           1.5860    -0.2800    -0.6310 c6         1 XO3      -0.016500
      7 C7           3.0120    -0.0370    -0.1980 cc         1 XO3       0.109900
      8 O8           3.4960    -0.4550     1.0250 os         1 XO3      -0.111200
      9 N9           4.8940    -0.0710     1.0150 ns         1 XO3      -0.339400
     10 C10          5.2030     0.6590    -0.0940 c          1 XO3       0.535200
     11 C11          4.0010     0.6180    -0.8760 cd         1 XO3      -0.395200
     12 O12          6.2530     1.2280    -0.3380 o          1 XO3      -0.516000
     13 C13         -1.9000     0.7350     0.9250 c3         1 XO3      -0.031100
     14 C14         -3.3540     0.5550     0.4960 ca         1 XO3      -0.088300
     15 C15         -4.2020    -0.3320     1.1900 ca         1 XO3      -0.107500
     16 C16         -5.5390    -0.4960     0.7890 ca         1 XO3      -0.110000
     17 C17         -6.0380     0.2270    -0.3080 ca         1 XO3      -0.110000
     18 C18         -5.1990     1.1130    -1.0040 ca         1 XO3      -0.110000
     19 C19         -3.8620     1.2770    -0.6030 ca         1 XO3      -0.107500
     20 H11C         1.5160    -2.2830     0.2470 hc         1 XO3       0.060200
     21 H12C         1.9360    -2.2730    -1.4640 hc         1 XO3       0.060200
     22 H21C        -0.3970    -1.6890    -2.0900 h1         1 XO3       0.033200
     23 H22C        -0.3990    -3.1360    -1.0600 h1         1 XO3       0.033200
     24 H6           1.4360     0.1520    -1.6300 hc         1 XO3       0.066700
     25 H3          -2.0730    -1.5360    -0.3990 hn         1 XO3       0.423000
     26 H4          -1.0610     0.5140    -1.0530 h1         1 XO3       0.020700
     27 H51C         0.7550     1.4900     0.3420 hc         1 XO3       0.056200
     28 H52C         0.7740     0.0600     1.3710 hc         1 XO3       0.056200
     29 H131        -1.7500     0.3280     1.9330 hc         1 XO3       0.056200
     30 H132        -1.6890     1.8080     1.0110 hc         1 XO3       0.056200
     31 H11          3.9430     1.0990    -1.8440 ha         1 XO3       0.233000
     32 H9           5.3180     0.1380     1.9130 hn         1 XO3       0.340500
     33 H15         -3.8240    -0.8970     2.0390 ha         1 XO3       0.114000
     34 H19         -3.2190     1.9660    -1.1470 ha         1 XO3       0.114000
     35 H16         -6.1880    -1.1830     1.3280 ha         1 XO3       0.113500
     36 H17         -7.0730     0.1000    -0.6190 ha         1 XO3       0.113000
     37 H18         -5.5850     1.6730    -1.8530 ha         1 XO3       0.113500
@<TRIPOS>BOND
     1     1     2 1   
     2     1     6 1   
     3     1    20 1   
     4     1    21 1   
     5     2     3 1   
     6     2    22 1   
     7     2    23 1   
     8     3     4 1   
     9     3    25 1   
    10     4     5 1   
    11     4    13 1   
    12     4    26 1   
    13     5     6 1   
    14     5    27 1   
    15     5    28 1   
    16     6     7 1   
    17     6    24 1   
    18     7     8 1   
    19     7    11 2   
    20     8     9 1   
    21     9    10 1   
    22     9    32 1   
    23    10    11 1   
    24    10    12 2   
    25    11    31 1   
    26    13    14 1   
    27    13    29 1   
    28    13    30 1   
    29    14    15 ar  
    30    14    19 ar  
    31    15    16 ar  
    32    15    33 1   
    33    16    17 ar  
    34    16    35 1   
    35    17    18 ar  
    36    17    36 1   
    37    18    19 ar  
    38    18    37 1   
    39    19    34 1   
@<TRIPOS>SUBSTRUCTURE
     1 XO3         1 TEMP              0 ****  ****    0 ROOT
