@<TRIPOS>MOLECULE
XO9
   15    16     1     0     0
SMALL
No Charge or Current Charge


@<TRIPOS>ATOM
      1 C02         15.1590     1.5310    16.3580 cs         1 XO9       0.329000
      2 C04         16.1820     3.0650    14.8060 ca         1 XO9       0.021600
      3 C05         17.0720     3.4970    13.8160 ca         1 XO9      -0.116000
      4 C06         16.9730     4.8320    13.3700 ca         1 XO9      -0.075000
      5 C07         15.9970     5.6980    13.9160 ca         1 XO9      -0.120000
      6 C08         15.1090     5.2410    14.9140 ca         1 XO9      -0.044000
      7 C09         15.2270     3.9100    15.3410 ca         1 XO9      -0.198000
      8 N03         16.0940     1.8000    15.3940 ns         1 XO9      -0.407600
      9 S01         14.9300     0.0760    17.1530 s          1 XO9      -0.490400
     10 S10         14.2500     3.0640    16.5750 ss         1 XO9       0.127400
     11 H051        17.8200     2.8250    13.4010 ha         1 XO9       0.127000
     12 H061        17.6520     5.1970    12.6020 ha         1 XO9       0.123000
     13 H071        15.9290     6.7260    13.5650 ha         1 XO9       0.123000
     14 H081        14.3560     5.9020    15.3380 ha         1 XO9       0.131000
     15 H1          16.7340     1.0640    15.1030 hn         1 XO9       0.472000
@<TRIPOS>BOND
     1     1     8 1   
     2     1     9 2   
     3     1    10 1   
     4     2     3 ar  
     5     2     7 ar  
     6     2     8 1   
     7     3     4 ar  
     8     3    11 1   
     9     4     5 ar  
    10     4    12 1   
    11     5     6 ar  
    12     5    13 1   
    13     6     7 ar  
    14     6    14 1   
    15     7    10 1   
    16     8    15 1   
@<TRIPOS>SUBSTRUCTURE
     1 XO9         1 TEMP              0 ****  ****    0 ROOT
