@<TRIPOS>MOLECULE
XO9
   15    16     1     0     0
SMALL
abcg2


@<TRIPOS>ATOM
      1 C02         15.1860     1.5810    16.3150 cs         1 XO9       0.329000
      2 C04         16.1850     3.0580    14.8060 ca         1 XO9       0.021600
      3 C05         17.0640     3.4990    13.8240 ca         1 XO9      -0.116000
      4 C06         16.9530     4.8160    13.3950 ca         1 XO9      -0.075000
      5 C07         15.9890     5.6720    13.9320 ca         1 XO9      -0.120000
      6 C08         15.1110     5.2310    14.9160 ca         1 XO9      -0.044000
      7 C09         15.2180     3.9150    15.3480 ca         1 XO9      -0.198000
      8 N03         16.1240     1.7930    15.3690 ns         1 XO9      -0.407600
      9 S01         14.9070     0.1590    17.1360 s          1 XO9      -0.490400
     10 S10         14.2770     3.0620    16.5550 ss         1 XO9       0.127400
     11 H051        17.8080     2.8300    13.4120 ha         1 XO9       0.127000
     12 H061        17.6270     5.1810    12.6300 ha         1 XO9       0.123000
     13 H071        15.9220     6.6930    13.5810 ha         1 XO9       0.123000
     14 H081        14.3640     5.8920    15.3350 ha         1 XO9       0.131000
     15 H1          16.7490     1.0440    15.0970 hn         1 XO9       0.472000
@<TRIPOS>BOND
     1     1     8 1   
     2     1     9 2   
     3     1    10 1   
     4     2     3 ar  
     5     2     7 ar  
     6     2     8 1   
     7     3     4 ar  
     8     3    11 1   
     9     4     5 ar  
    10     4    12 1   
    11     5     6 ar  
    12     5    13 1   
    13     6     7 ar  
    14     6    14 1   
    15     7    10 1   
    16     8    15 1   
@<TRIPOS>SUBSTRUCTURE
     1 XO9         1 TEMP              0 ****  ****    0 ROOT
