@<TRIPOS>MOLECULE
XOB
   35    38     1     0     0
SMALL
abcg2


@<TRIPOS>ATOM
      1 C1           0.8970    18.5900    20.2640 ca         1 XOB      -0.109000
      2 C2           2.0970    18.9320    19.6520 ca         1 XOB      -0.109000
      3 C3           3.2750    18.9220    20.3820 ca         1 XOB      -0.107000
      4 C4           3.2630    18.5590    21.7230 ca         1 XOB       0.059100
      5 C5           2.0600    18.1990    22.3340 ca         1 XOB       0.055100
      6 C6           0.8820    18.2190    21.6000 ca         1 XOB      -0.104000
      7 O7           2.0150    17.8290    23.6370 os         1 XOB      -0.326100
      8 C8           3.2660    17.4340    24.1690 c6         1 XOB       0.123600
      9 C9           4.3260    18.4610    23.8150 c6         1 XOB       0.112300
     10 O10          4.4340    18.5710    22.4060 os         1 XOB      -0.341100
     11 C11          5.7240    18.0810    24.2930 c3         1 XOB       0.104000
     12 N12          5.8580    18.1610    25.7400 n          1 XOB      -0.286000
     13 C13          6.0770    19.3730    26.3490 cc         1 XOB       0.108600
     14 C14          6.1850    20.6410    25.7180 cc         1 XOB      -0.169000
     15 C15          6.4030    21.6280    26.6310 cd         1 XOB      -0.213000
     16 S16          6.4830    21.0700    28.2420 ss         1 XOB       0.357000
     17 C17          6.2190    19.4590    27.7130 cd         1 XOB      -0.393600
     18 C18          6.1480    18.3130    28.5560 c          1 XOB       0.621600
     19 O19          6.2570    18.2640    29.7690 o          1 XOB      -0.535000
     20 N20          5.9260    17.1550    27.8330 n          1 XOB      -0.247900
     21 C21          5.7550    16.9980    26.4730 c          1 XOB       0.641000
     22 O22          5.5350    15.9150    25.9800 o          1 XOB      -0.513000
     23 O23          5.8230    15.9960    28.5400 oh         1 XOB      -0.408100
     24 H1          -0.0260    18.6010    19.7010 ha         1 XOB       0.119000
     25 H2           2.1180    19.2150    18.6080 ha         1 XOB       0.118000
     26 H3           4.2160    19.1950    19.9200 ha         1 XOB       0.126000
     27 H4          -0.0440    17.9390    22.0870 ha         1 XOB       0.129000
     28 H5           3.1350    17.3630    25.2470 h1         1 XOB       0.078700
     29 H6           3.5520    16.4480    23.7850 h1         1 XOB       0.078700
     30 H7           4.0360    19.4330    24.2370 h1         1 XOB       0.066700
     31 H8           5.9740    17.0720    23.9730 h1         1 XOB       0.087700
     32 H9           6.4570    18.7490    23.8410 h1         1 XOB       0.087700
     33 H10          6.1040    20.8250    24.6580 ha         1 XOB       0.152000
     34 H11          6.5200    22.6810    26.4220 h4         1 XOB       0.160000
     35 H12          5.9500    16.2770    29.4640 ho         1 XOB       0.477000
@<TRIPOS>BOND
     1     1     2 ar  
     2     1     6 ar  
     3     1    24 1   
     4     2     3 ar  
     5     2    25 1   
     6     3     4 ar  
     7     3    26 1   
     8     4     5 ar  
     9     4    10 1   
    10     5     6 ar  
    11     5     7 1   
    12     6    27 1   
    13     7     8 1   
    14     8     9 1   
    15     8    28 1   
    16     8    29 1   
    17     9    10 1   
    18     9    11 1   
    19     9    30 1   
    20    11    12 1   
    21    11    31 1   
    22    11    32 1   
    23    12    13 1   
    24    12    21 1   
    25    13    14 1   
    26    13    17 2   
    27    14    15 2   
    28    14    33 1   
    29    15    16 1   
    30    15    34 1   
    31    16    17 1   
    32    17    18 1   
    33    18    19 2   
    34    18    20 1   
    35    20    21 1   
    36    20    23 1   
    37    21    22 2   
    38    23    35 1   
@<TRIPOS>SUBSTRUCTURE
     1 XOB         1 TEMP              0 ****  ****    0 ROOT
