@<TRIPOS>MOLECULE
XOB
   35    38     1     0     0
SMALL
No Charge or Current Charge


@<TRIPOS>ATOM
      1 C1           0.8610    18.5980    20.1500 ca         1 XOB      -0.109000
      2 C2           2.0930    18.8330    19.5120 ca         1 XOB      -0.109000
      3 C3           3.2910    18.7810    20.2480 ca         1 XOB      -0.107000
      4 C4           3.2570    18.4950    21.6220 ca         1 XOB       0.059100
      5 C5           2.0180    18.2360    22.2610 ca         1 XOB       0.055100
      6 C6           0.8230    18.3000    21.5250 ca         1 XOB      -0.104000
      7 O7           1.9700    17.9220    23.6040 os         1 XOB      -0.326100
      8 C8           3.2110    17.5510    24.2450 c6         1 XOB       0.123600
      9 C9           4.3460    18.4950    23.7790 c6         1 XOB       0.112300
     10 O10          4.4380    18.4690    22.3370 os         1 XOB      -0.341100
     11 C11          5.7400    18.1090    24.3430 c3         1 XOB       0.104000
     12 N12          5.8570    18.2030    25.8250 n          1 XOB      -0.286000
     13 C13          6.0560    19.4140    26.4750 cc         1 XOB       0.108600
     14 C14          6.1530    20.6600    25.8020 cc         1 XOB      -0.169000
     15 C15          6.3490    21.7140    26.6620 cd         1 XOB      -0.213000
     16 S16          6.4210    21.1740    28.3540 ss         1 XOB       0.357000
     17 C17          6.1740    19.5080    27.8210 cd         1 XOB      -0.393600
     18 C18          6.0990    18.3400    28.6960 c          1 XOB       0.621600
     19 O19          6.2110    18.4080    29.9130 o          1 XOB      -0.535000
     20 N20          5.8890    17.1310    28.0030 n          1 XOB      -0.247900
     21 C21          5.7650    17.0160    26.5960 c          1 XOB       0.641000
     22 O22          5.5790    15.9240    26.0710 o          1 XOB      -0.513000
     23 O23          5.7770    15.9060    28.8000 oh         1 XOB      -0.408100
     24 H1          -0.0640    18.6420    19.5790 ha         1 XOB       0.119000
     25 H2           2.1190    19.0600    18.4480 ha         1 XOB       0.118000
     26 H3           4.2420    18.9710    19.7560 ha         1 XOB       0.126000
     27 H4          -0.1280    18.1100    22.0160 ha         1 XOB       0.129000
     28 H5           3.0830    17.6020    25.3350 h1         1 XOB       0.078700
     29 H6           3.4560    16.5150    23.9740 h1         1 XOB       0.078700
     30 H7           4.1030    19.5200    24.0920 h1         1 XOB       0.066700
     31 H8           5.9820    17.0940    24.0020 h1         1 XOB       0.087700
     32 H9           6.4940    18.7630    23.8870 h1         1 XOB       0.087700
     33 H10          6.0810    20.7780    24.7260 ha         1 XOB       0.152000
     34 H11          6.4570    22.7660    26.4260 h4         1 XOB       0.160000
     35 H12          6.6960    15.5600    28.8780 ho         1 XOB       0.477000
@<TRIPOS>BOND
     1     1     2 ar  
     2     1     6 ar  
     3     1    24 1   
     4     2     3 ar  
     5     2    25 1   
     6     3     4 ar  
     7     3    26 1   
     8     4     5 ar  
     9     4    10 1   
    10     5     6 ar  
    11     5     7 1   
    12     6    27 1   
    13     7     8 1   
    14     8     9 1   
    15     8    28 1   
    16     8    29 1   
    17     9    10 1   
    18     9    11 1   
    19     9    30 1   
    20    11    12 1   
    21    11    31 1   
    22    11    32 1   
    23    12    13 1   
    24    12    21 1   
    25    13    14 1   
    26    13    17 2   
    27    14    15 2   
    28    14    33 1   
    29    15    16 1   
    30    15    34 1   
    31    16    17 1   
    32    17    18 1   
    33    18    19 2   
    34    18    20 1   
    35    20    21 1   
    36    20    23 1   
    37    21    22 2   
    38    23    35 1   
@<TRIPOS>SUBSTRUCTURE
     1 XOB         1 TEMP              0 ****  ****    0 ROOT
