@<TRIPOS>MOLECULE
XOC
   45    48     1     0     0
SMALL
No Charge or Current Charge


@<TRIPOS>ATOM
      1 C1          -2.2110    -1.4270     0.0420 ca         1 XOC      -0.124500
      2 C2          -2.5140    -2.7480    -0.3340 ca         1 XOC      -0.058000
      3 C3          -1.7540    -3.3930    -1.3240 ca         1 XOC      -0.131000
      4 C4          -0.6890    -2.7190    -1.9410 ca         1 XOC      -0.077500
      5 C5          -0.3820    -1.4000    -1.5660 ca         1 XOC      -0.137000
      6 C6          -1.1370    -0.7440    -0.5710 ca         1 XOC       0.024000
      7 C7          -1.8010     1.4880     0.1570 ca         1 XOC       0.024000
      8 C8          -1.6490     2.8480    -0.1850 ca         1 XOC      -0.137000
      9 C9          -2.6320     3.7880     0.1690 ca         1 XOC      -0.077500
     10 C10         -3.7760     3.3740     0.8690 ca         1 XOC      -0.131000
     11 C11         -3.9390     2.0220     1.2130 ca         1 XOC      -0.058000
     12 C12         -2.9580     1.0790     0.8560 ca         1 XOC      -0.124500
     13 C13          1.4800     1.2950    -0.4900 c          1 XOC       0.581100
     14 C14          2.8840     1.3630     0.1770 c3         1 XOC       0.094800
     15 C15          5.1780     0.4770     0.4920 c6         1 XOC       0.170300
     16 C16          6.1830    -0.6320     0.0970 c6         1 XOC      -0.074400
     17 C17          5.6580    -2.0280     0.5050 c6         1 XOC      -0.076400
     18 C18          4.2420    -2.2510    -0.0720 c6         1 XOC      -0.074400
     19 C19          3.2890    -1.0980     0.3260 c6         1 XOC       0.170300
     20 N1          -0.8130     0.5600    -0.1830 na         1 XOC       0.074700
     21 N2           0.4820     0.7790     0.3180 ns         1 XOC      -0.436200
     22 N3           3.8290     0.2300    -0.0890 n3         1 XOC      -0.701600
     23 O2           1.2770     1.6610    -1.6430 o          1 XOC      -0.534100
     24 S1          -3.2020    -0.6370     1.3050 ss         1 XOC       0.027000
     25 H2          -3.3400    -3.2740     0.1410 ha         1 XOC       0.125000
     26 H3          -1.9930    -4.4150    -1.6120 ha         1 XOC       0.118000
     27 H4          -0.1010    -3.2170    -2.7090 ha         1 XOC       0.114500
     28 H5           0.4450    -0.8910    -2.0530 ha         1 XOC       0.115500
     29 H8          -0.7680     3.1820    -0.7280 ha         1 XOC       0.115500
     30 H9          -2.5060     4.8350    -0.0990 ha         1 XOC       0.114500
     31 H10         -4.5380     4.1010     1.1450 ha         1 XOC       0.118000
     32 H11         -4.8280     1.7060     1.7540 ha         1 XOC       0.125000
     33 H141         3.3350     2.3040    -0.1650 h1         1 XOC       0.046700
     34 H142         2.7280     1.4700     1.2590 h1         1 XOC       0.046700
     35 HA           0.6990     0.4860     1.2630 hn         1 XOC       0.346500
     36 H152         5.5700     1.4450     0.1460 h1         1 XOC       0.029950
     37 H161         6.3530    -0.6010    -0.9880 hc         1 XOC       0.050700
     38 H162         7.1540    -0.4410     0.5720 hc         1 XOC       0.050700
     39 H171         6.3420    -2.8100     0.1470 hc         1 XOC       0.039200
     40 H172         5.6300    -2.1080     1.6010 hc         1 XOC       0.039200
     41 H181         4.2930    -2.3200    -1.1670 hc         1 XOC       0.050700
     42 H182         3.8370    -3.2080     0.2840 hc         1 XOC       0.050700
     43 H191         2.3130    -1.2820    -0.1450 h1         1 XOC       0.029950
     44 H192         3.1330    -1.1200     1.4150 h1         1 XOC       0.029950
     45 H151         5.1140     0.5290     1.5900 h1         1 XOC       0.029950
@<TRIPOS>BOND
     1     1     2 ar  
     2     1     6 ar  
     3     1    24 1   
     4     2     3 ar  
     5     2    25 1   
     6     3     4 ar  
     7     3    26 1   
     8     4     5 ar  
     9     4    27 1   
    10     5     6 ar  
    11     5    28 1   
    12     6    20 1   
    13     7     8 ar  
    14     7    12 ar  
    15     7    20 1   
    16     8     9 ar  
    17     8    29 1   
    18     9    10 ar  
    19     9    30 1   
    20    10    11 ar  
    21    10    31 1   
    22    11    12 ar  
    23    11    32 1   
    24    12    24 1   
    25    13    14 1   
    26    13    21 1   
    27    13    23 2   
    28    14    22 1   
    29    14    33 1   
    30    14    34 1   
    31    15    16 1   
    32    15    22 1   
    33    15    36 1   
    34    15    45 1   
    35    16    17 1   
    36    16    37 1   
    37    16    38 1   
    38    17    18 1   
    39    17    39 1   
    40    17    40 1   
    41    18    19 1   
    42    18    41 1   
    43    18    42 1   
    44    19    22 1   
    45    19    43 1   
    46    19    44 1   
    47    20    21 1   
    48    21    35 1   
@<TRIPOS>SUBSTRUCTURE
     1 XOC         1 TEMP              0 ****  ****    0 ROOT
