@<TRIPOS>MOLECULE
XOC
   45    48     1     0     0
SMALL
bcc


@<TRIPOS>ATOM
      1 C1          -2.9050    -1.2360    -0.1880 ca         1 XOC       0.020400
      2 C2          -3.3440    -2.3970    -0.8080 ca         1 XOC      -0.076000
      3 C3          -2.4730    -3.4570    -1.0110 ca         1 XOC      -0.149000
      4 C4          -1.1570    -3.3350    -0.5950 ca         1 XOC      -0.095500
      5 C5          -0.7040    -2.1620    -0.0100 ca         1 XOC      -0.155000
      6 C6          -1.5690    -1.0880     0.1920 ca         1 XOC       0.074700
      7 C7          -1.7200     1.3590     0.4790 ca         1 XOC       0.074700
      8 C8          -0.9980     2.5480     0.5450 ca         1 XOC      -0.155000
      9 C9          -1.6000     3.7590     0.2330 ca         1 XOC      -0.095500
     10 C10         -2.9240     3.8090    -0.1740 ca         1 XOC      -0.149000
     11 C11         -3.6540     2.6320    -0.2330 ca         1 XOC      -0.076000
     12 C12         -3.0680     1.4230     0.1170 ca         1 XOC       0.020400
     13 C13          1.2060     0.3220     0.3730 c          1 XOC       0.648100
     14 C14          2.5460     0.3800     1.0840 c3         1 XOC       0.094800
     15 C15          4.9020     0.5830     0.7080 c6         1 XOC       0.170300
     16 C16          6.0100     0.3960    -0.3170 c6         1 XOC      -0.074400
     17 C17          6.1300    -1.0680    -0.7230 c6         1 XOC      -0.076400
     18 C18          4.7740    -1.5960    -1.1760 c6         1 XOC      -0.074400
     19 C19          3.7130    -1.3320    -0.1200 c6         1 XOC       0.170300
     20 N1          -1.1330     0.1150     0.7840 na         1 XOC      -0.026700
     21 N2           0.1580     0.1390     1.2230 ns         1 XOC      -0.503200
     22 N3           3.6350     0.0860     0.1960 n3         1 XOC      -0.701600
     23 O2           1.0550     0.4600    -0.8210 o          1 XOC      -0.534100
     24 S1          -4.0850    -0.0060     0.2470 ss         1 XOC      -0.262800
     25 H2          -4.3800    -2.4760    -1.1120 ha         1 XOC       0.143000
     26 H3          -2.8250    -4.3660    -1.4790 ha         1 XOC       0.136000
     27 H4          -0.4620    -4.1530    -0.7300 ha         1 XOC       0.132500
     28 H5           0.3260    -2.1110     0.3120 ha         1 XOC       0.133500
     29 H8           0.0320     2.5560     0.8680 ha         1 XOC       0.133500
     30 H9          -1.0160     4.6670     0.3050 ha         1 XOC       0.132500
     31 H10         -3.3890     4.7500    -0.4320 ha         1 XOC       0.136000
     32 H11         -4.6940     2.6500    -0.5310 ha         1 XOC       0.143000
     33 H141         2.6520     1.4050     1.4570 h1         1 XOC       0.046700
     34 H142         2.5250    -0.2650     1.9790 h1         1 XOC       0.046700
     35 HA           0.2990    -0.0010     2.2130 hn         1 XOC       0.346500
     36 H152         4.7880     1.6430     0.9470 h1         1 XOC       0.029950
     37 H161         5.7900     1.0080    -1.1970 hc         1 XOC       0.050700
     38 H162         6.9520     0.7610     0.0990 hc         1 XOC       0.050700
     39 H171         6.8740    -1.1900    -1.5130 hc         1 XOC       0.039200
     40 H172         6.4810    -1.6540     0.1320 hc         1 XOC       0.039200
     41 H181         4.4780    -1.1070    -2.1080 hc         1 XOC       0.050700
     42 H182         4.8220    -2.6680    -1.3790 hc         1 XOC       0.050700
     43 H191         2.7430    -1.6750    -0.4870 h1         1 XOC       0.029950
     44 H192         3.9380    -1.9250     0.7840 h1         1 XOC       0.029950
     45 H151         5.1870     0.0740     1.6460 h1         1 XOC       0.029950
@<TRIPOS>BOND
     1     1     2 ar  
     2     1     6 ar  
     3     1    24 1   
     4     2     3 ar  
     5     2    25 1   
     6     3     4 ar  
     7     3    26 1   
     8     4     5 ar  
     9     4    27 1   
    10     5     6 ar  
    11     5    28 1   
    12     6    20 1   
    13     7     8 ar  
    14     7    12 ar  
    15     7    20 1   
    16     8     9 ar  
    17     8    29 1   
    18     9    10 ar  
    19     9    30 1   
    20    10    11 ar  
    21    10    31 1   
    22    11    12 ar  
    23    11    32 1   
    24    12    24 1   
    25    13    14 1   
    26    13    21 1   
    27    13    23 2   
    28    14    22 1   
    29    14    33 1   
    30    14    34 1   
    31    15    16 1   
    32    15    22 1   
    33    15    36 1   
    34    15    45 1   
    35    16    17 1   
    36    16    37 1   
    37    16    38 1   
    38    17    18 1   
    39    17    39 1   
    40    17    40 1   
    41    18    19 1   
    42    18    41 1   
    43    18    42 1   
    44    19    22 1   
    45    19    43 1   
    46    19    44 1   
    47    20    21 1   
    48    21    35 1   
@<TRIPOS>SUBSTRUCTURE
     1 XOC         1 TEMP              0 ****  ****    0 ROOT
