@<TRIPOS>MOLECULE
XOD
   68    70     1     0     0
SMALL
bcc


@<TRIPOS>ATOM
      1 N1          11.1430    23.5720    13.1260 n7         1 XOD      -0.826200
      2 N3          23.3080    27.1630    15.3750 nb         1 XOD      -0.712500
      3 C4          10.2360    21.3200    13.4680 c6         1 XOD       0.106100
      4 C5           9.9370    22.7520    13.0180 c6         1 XOD       0.136500
      5 C6           9.4150    22.7160    11.5820 c6         1 XOD      -0.107400
      6 C7           9.8700    22.0860     9.1880 c3         1 XOD       0.143400
      7 C8          10.8960    25.0070    13.1590 c3         1 XOD       0.157800
      8 C10         13.2200    25.5940    12.2820 c3         1 XOD      -0.075400
      9 C13         16.8490    26.8620    11.6110 c3         1 XOD       0.225800
     10 C15         19.4640    25.9500    14.2140 ca         1 XOD      -0.311200
     11 C17         21.3820    27.4060    13.9630 cp         1 XOD      -0.237500
     12 C20         22.7330    27.8230    14.3710 cp         1 XOD       0.735500
     13 C21         24.5230    27.5410    15.7340 ca         1 XOD       0.448200
     14 C22         25.1920    28.5800    15.1070 ca         1 XOD      -0.377600
     15 C1          10.4180    22.0730    10.6150 c6         1 XOD       0.182800
     16 C11         14.4990    26.3880    12.5160 c3         1 XOD      -0.078400
     17 C12         15.5080    26.1830    11.3900 c3         1 XOD      -0.095400
     18 C14         18.7650    26.5870    13.1450 ca         1 XOD       0.299600
     19 C16         20.7390    26.3630    14.5950 ca         1 XOD       0.032000
     20 C18         20.7020    28.0510    12.9150 ca         1 XOD       0.013000
     21 C19         19.4510    27.6620    12.5240 ca         1 XOD      -0.263000
     22 C2          10.6970    20.6390    11.0950 c6         1 XOD       0.141100
     23 C23         24.5080    29.2030    14.0760 ca         1 XOD       0.448200
     24 C3          11.2150    20.6220    12.5310 c6         1 XOD       0.115100
     25 C9          12.1840    25.7850    13.3820 c3         1 XOD      -0.076400
     26 N2          17.5480    26.2380    12.7170 nu         1 XOD      -0.746600
     27 N4          23.2910    28.8320    13.7080 nb         1 XOD      -0.712500
     28 O1          11.6100    22.8270    10.5570 oh         1 XOD      -0.618800
     29 O2           8.7130    21.2880     9.1110 oh         1 XOD      -0.608800
     30 O3          11.3790    19.2630    12.8830 oh         1 XOD      -0.608800
     31 O4          10.7900    21.2710    14.7660 oh         1 XOD      -0.604800
     32 O5          11.6200    20.0400    10.2190 oh         1 XOD      -0.580800
     33 O6          19.5210    24.3800    15.8700 o          1 XOD      -0.238000
     34 O7          17.7960    24.4400    14.6280 o          1 XOD      -0.238000
     35 H1          11.6300    23.3100    13.9770 hn         1 XOD       0.378800
     36 H3           9.2850    20.7670    13.4340 h1         1 XOD       0.051700
     37 H4           9.1380    23.1470    13.6670 h1         1 XOD       0.028700
     38 H5           9.1770    23.7260    11.2370 hc         1 XOD       0.062200
     39 H6           8.4750    22.1610    11.5710 hc         1 XOD       0.062200
     40 H7          10.6500    21.7360     8.5010 h1         1 XOD       0.037700
     41 H8           9.6560    23.1310     8.9250 h1         1 XOD       0.037700
     42 H9          10.4510    25.3110    12.2070 h1         1 XOD       0.035200
     43 H10         10.1680    25.2680    13.9410 h1         1 XOD       0.035200
     44 H11         12.7830    25.8790    11.3180 hc         1 XOD       0.051200
     45 H12         13.4820    24.5360    12.1990 hc         1 XOD       0.051200
     46 H13         17.4500    26.7890    10.7000 h1         1 XOD       0.047700
     47 H14         16.7000    27.9280    11.8110 h1         1 XOD       0.047700
     48 H15         24.9820    26.9970    16.5520 h4         1 XOD       0.025600
     49 H16         26.1840    28.8860    15.4030 ha         1 XOD       0.154000
     50 H17         14.9300    26.0880    13.4770 hc         1 XOD       0.042200
     51 H18         14.2710    27.4550    12.6050 hc         1 XOD       0.042200
     52 H19         15.0880    26.5690    10.4580 hc         1 XOD       0.057200
     53 H20         15.6720    25.1120    11.2260 hc         1 XOD       0.057200
     54 H21         21.2390    25.8530    15.4040 ha         1 XOD       0.186000
     55 H22         21.1750    28.8750    12.3990 ha         1 XOD       0.156000
     56 H23         18.9750    28.1920    11.7120 ha         1 XOD       0.142000
     57 H24          9.7440    20.0880    11.0880 h1         1 XOD       0.052700
     58 H25         24.9530    30.0260    13.5290 h4         1 XOD       0.025600
     59 H26         12.1850    21.1370    12.5660 h1         1 XOD       0.066700
     60 H27         11.9310    26.8460    13.4650 hc         1 XOD       0.042200
     61 H28         12.6160    25.5000    14.3480 hc         1 XOD       0.042200
     62 H29         17.1200    25.4420    13.1600 hn         1 XOD       0.479800
     63 H30         11.7550    23.1690    11.4670 ho         1 XOD       0.448000
     64 H31          8.4070    21.2890     8.2000 ho         1 XOD       0.408000
     65 H32         11.8470    19.2210    13.7230 ho         1 XOD       0.422000
     66 H33         10.1050    21.5010    15.4020 ho         1 XOD       0.409000
     67 H34         11.8030    19.1540    10.5480 ho         1 XOD       0.416000
     68 N5          18.8970    24.8590    14.9490 no         1 XOD       0.330200
@<TRIPOS>BOND
     1     1     4 1   
     2     1     7 1   
     3     1    35 1   
     4     2    12 ar  
     5     2    13 ar  
     6     3     4 1   
     7     3    24 1   
     8     3    31 1   
     9     3    36 1   
    10     4     5 1   
    11     4    37 1   
    12     5    15 1   
    13     5    38 1   
    14     5    39 1   
    15     6    15 1   
    16     6    29 1   
    17     6    40 1   
    18     6    41 1   
    19     7    25 1   
    20     7    42 1   
    21     7    43 1   
    22     8    16 1   
    23     8    25 1   
    24     8    44 1   
    25     8    45 1   
    26     9    17 1   
    27     9    26 1   
    28     9    46 1   
    29     9    47 1   
    30    10    18 ar  
    31    10    19 ar  
    32    10    68 1   
    33    11    12 1   
    34    11    19 ar  
    35    11    20 ar  
    36    12    27 ar  
    37    13    14 ar  
    38    13    48 1   
    39    14    23 ar  
    40    14    49 1   
    41    15    22 1   
    42    15    28 1   
    43    16    17 1   
    44    16    50 1   
    45    16    51 1   
    46    17    52 1   
    47    17    53 1   
    48    18    21 ar  
    49    18    26 1   
    50    19    54 1   
    51    20    21 ar  
    52    20    55 1   
    53    21    56 1   
    54    22    24 1   
    55    22    32 1   
    56    22    57 1   
    57    23    27 ar  
    58    23    58 1   
    59    24    30 1   
    60    24    59 1   
    61    25    60 1   
    62    25    61 1   
    63    26    62 1   
    64    28    63 1   
    65    29    64 1   
    66    30    65 1   
    67    31    66 1   
    68    32    67 1   
    69    33    68 1   
    70    34    68 1   
@<TRIPOS>SUBSTRUCTURE
     1 XOD         1 TEMP              0 ****  ****    0 ROOT
