@<TRIPOS>MOLECULE
XOD
   68    70     1     0     0
SMALL
No Charge or Current Charge


@<TRIPOS>ATOM
      1 N1          11.1930    23.3010    13.2370 n7         1 XOD      -0.881400
      2 N3          23.1750    27.9200    15.6920 nb         1 XOD      -0.186500
      3 C4          10.1860    20.9950    13.3090 c6         1 XOD       0.129300
      4 C5           9.9310    22.5270    13.1090 c6         1 XOD       0.136500
      5 C6           9.2550    22.7750    11.7320 c6         1 XOD      -0.107400
      6 C7           9.4210    22.5310     9.1700 c3         1 XOD       0.166600
      7 C8          11.0750    24.7540    13.4720 c3         1 XOD       0.157800
      8 C10         13.3770    25.3080    12.4120 c3         1 XOD      -0.075400
      9 C13         16.9900    26.6750    11.5060 c3         1 XOD       0.225800
     10 C15         19.4060    26.3610    14.3360 ca         1 XOD      -0.311200
     11 C17         21.5620    27.4980    13.8930 cp         1 XOD      -0.237500
     12 C20         22.8840    28.0420    14.3760 cp         1 XOD       0.209500
     13 C21         24.3560    28.4050    16.1250 ca         1 XOD       0.119900
     14 C22         25.2580    29.0180    15.2430 ca         1 XOD      -0.229000
     15 C1          10.1230    22.2490    10.5510 c6         1 XOD       0.206000
     16 C11         14.7350    26.0170    12.6080 c3         1 XOD      -0.078400
     17 C12         15.6460    25.9320    11.3590 c3         1 XOD      -0.095400
     18 C14         19.0610    26.4720    12.9770 ca         1 XOD       0.438000
     19 C16         20.6440    26.8760    14.7840 ca         1 XOD       0.050000
     20 C18         21.1830    27.5870    12.5290 ca         1 XOD       0.031000
     21 C19         19.9530    27.0810    12.0870 ca         1 XOD      -0.245000
     22 C2          10.3870    20.7030    10.7620 c6         1 XOD       0.164300
     23 C23         24.8820    29.1060    13.8940 ca         1 XOD       0.119900
     24 C3          11.0540    20.4290    12.1460 c6         1 XOD       0.138300
     25 C9          12.4680    25.3880    13.6620 c3         1 XOD      -0.076400
     26 N2          17.8510    25.9990    12.4860 nu         1 XOD      -0.940200
     27 N4          23.7000    28.6190    13.4650 nb         1 XOD      -0.186500
     28 O1          11.3520    22.9930    10.6040 oh         1 XOD      -0.741000
     29 O2           8.1330    21.8930     9.0300 oh         1 XOD      -0.731000
     30 O3          11.2690    19.0170    12.3380 oh         1 XOD      -0.731000
     31 O4          10.8400    20.7310    14.5710 oh         1 XOD      -0.727000
     32 O5          11.2150    20.1130     9.7370 oh         1 XOD      -0.703000
     33 O6          18.5730    26.1300    16.5050 o          1 XOD      -0.428000
     34 O7          17.7550    24.8160    14.9720 o          1 XOD      -0.428000
     35 H1          11.6940    22.9050    14.0480 hn         1 XOD       0.434000
     36 H3           9.2100    20.4860    13.2850 h1         1 XOD       0.051700
     37 H4           9.2400    22.8580    13.8980 h1         1 XOD       0.028700
     38 H5           9.0390    23.8440    11.6000 hc         1 XOD       0.062200
     39 H6           8.2760    22.2750    11.7240 hc         1 XOD       0.062200
     40 H7          10.0920    22.1960     8.3680 h1         1 XOD       0.037700
     41 H8           9.3090    23.6190     9.0610 h1         1 XOD       0.037700
     42 H9          10.5700    25.2480    12.6310 h1         1 XOD       0.035200
     43 H10         10.4780    24.9430    14.3750 h1         1 XOD       0.035200
     44 H11         12.8550    25.7570    11.5580 hc         1 XOD       0.051200
     45 H12         13.5590    24.2560    12.1590 hc         1 XOD       0.051200
     46 H13         17.4880    26.7050    10.5280 h1         1 XOD       0.047700
     47 H14         16.7990    27.7120    11.8180 h1         1 XOD       0.047700
     48 H15         24.5760    28.3000    17.1870 h4         1 XOD       0.025600
     49 H16         26.2100    29.4100    15.5910 ha         1 XOD       0.136000
     50 H17         15.2470    25.5710    13.4690 hc         1 XOD       0.042200
     51 H18         14.5590    27.0720    12.8530 hc         1 XOD       0.042200
     52 H19         15.1110    26.3670    10.5050 hc         1 XOD       0.057200
     53 H20         15.8360    24.8820    11.1050 hc         1 XOD       0.057200
     54 H21         20.9020    26.7860    15.8390 ha         1 XOD       0.168000
     55 H22         21.8420    28.0500    11.7960 ha         1 XOD       0.138000
     56 H23         19.7000    27.1620    11.0350 ha         1 XOD       0.124000
     57 H24          9.4090    20.1980    10.7660 h1         1 XOD       0.052700
     58 H25         25.5280    29.5680    13.1490 h4         1 XOD       0.025600
     59 H26         12.0240    20.9490    12.1670 h1         1 XOD       0.066700
     60 H27         12.3300    26.4420    13.9320 hc         1 XOD       0.042200
     61 H28         12.9710    24.9100    14.5120 hc         1 XOD       0.042200
     62 H29         17.3700    25.3840    13.1460 hn         1 XOD       0.535000
     63 H30         11.4260    23.2040    11.5890 ho         1 XOD       0.547000
     64 H31          7.8030    22.1100     8.1260 ho         1 XOD       0.507000
     65 H32         11.3800    18.9260    13.3170 ho         1 XOD       0.521000
     66 H33         10.2320    21.0440    15.2820 ho         1 XOD       0.508000
     67 H34         11.5930    19.3140    10.1780 ho         1 XOD       0.515000
     68 N5          18.4930    25.7410    15.3340 no         1 XOD       0.710200
@<TRIPOS>BOND
     1     1     4 1   
     2     1     7 1   
     3     1    35 1   
     4     2    12 ar  
     5     2    13 ar  
     6     3     4 1   
     7     3    24 1   
     8     3    31 1   
     9     3    36 1   
    10     4     5 1   
    11     4    37 1   
    12     5    15 1   
    13     5    38 1   
    14     5    39 1   
    15     6    15 1   
    16     6    29 1   
    17     6    40 1   
    18     6    41 1   
    19     7    25 1   
    20     7    42 1   
    21     7    43 1   
    22     8    16 1   
    23     8    25 1   
    24     8    44 1   
    25     8    45 1   
    26     9    17 1   
    27     9    26 1   
    28     9    46 1   
    29     9    47 1   
    30    10    18 ar  
    31    10    19 ar  
    32    10    68 1   
    33    11    12 1   
    34    11    19 ar  
    35    11    20 ar  
    36    12    27 ar  
    37    13    14 ar  
    38    13    48 1   
    39    14    23 ar  
    40    14    49 1   
    41    15    22 1   
    42    15    28 1   
    43    16    17 1   
    44    16    50 1   
    45    16    51 1   
    46    17    52 1   
    47    17    53 1   
    48    18    21 ar  
    49    18    26 1   
    50    19    54 1   
    51    20    21 ar  
    52    20    55 1   
    53    21    56 1   
    54    22    24 1   
    55    22    32 1   
    56    22    57 1   
    57    23    27 ar  
    58    23    58 1   
    59    24    30 1   
    60    24    59 1   
    61    25    60 1   
    62    25    61 1   
    63    26    62 1   
    64    28    63 1   
    65    29    64 1   
    66    30    65 1   
    67    31    66 1   
    68    32    67 1   
    69    33    68 1   
    70    34    68 1   
@<TRIPOS>SUBSTRUCTURE
     1 XOD         1 TEMP              0 ****  ****    0 ROOT
