@<TRIPOS>MOLECULE
XOE
   65    69     1     0     0
SMALL
No Charge or Current Charge


@<TRIPOS>ATOM
      1 C4          12.5080    36.0650    22.2530 ca         1 XOE       0.184000
      2 C5          14.4860    34.6550    22.5000 ca         1 XOE       0.142100
      3 C6          14.1980    34.0350    21.2780 ca         1 XOE      -0.144000
      4 C7          13.0800    34.4390    20.5350 ca         1 XOE       0.201000
      5 C8          12.2190    35.4710    20.9920 ca         1 XOE       0.198000
      6 C13         18.4990    35.7410    24.8830 ca         1 XOE      -0.011000
      7 C15         17.8260    37.0340    22.9550 ca         1 XOE       0.390900
      8 C17         17.2440    33.6250    25.4570 cp         1 XOE       0.232500
      9 C21         17.2300    32.7240    27.5780 ca         1 XOE       0.389900
     10 C24         17.7600    34.1450    29.6370 c6         1 XOE       0.215500
     11 C26         17.8850    35.2640    31.9320 c6         1 XOE       0.158300
     12 C11         16.6410    35.1110    23.4680 ca         1 XOE       0.595300
     13 C12         17.4610    34.8220    24.5900 cp         1 XOE      -0.206500
     14 C14         18.6790    36.8540    24.0510 ca         1 XOE      -0.196000
     15 C18         16.9660    32.3340    24.9470 ca         1 XOE      -0.258000
     16 C19         16.8160    31.2770    25.8580 ca         1 XOE       0.151900
     17 C25         17.3890    34.0290    31.1380 c6         1 XOE      -0.119400
     18 C27         19.4020    35.5290    31.6920 c6         1 XOE       0.126800
     19 C29         19.2930    34.4300    29.4750 c6         1 XOE       0.131800
     20 C3          13.6310    35.6580    22.9970 ca         1 XOE       0.117000
     21 C31         12.2060    38.3520    19.5460 c3         1 XOE      -0.243100
     22 C34         13.3770    37.6180    18.8920 ca         1 XOE      -0.083300
     23 C35         14.5440    37.3540    19.6360 ca         1 XOE      -0.089500
     24 C36         15.6140    36.6520    19.0540 ca         1 XOE      -0.110000
     25 C37         15.5290    36.2210    17.7210 ca         1 XOE      -0.100000
     26 C38         14.3750    36.4970    16.9680 ca         1 XOE      -0.110000
     27 C39         13.3040    37.1970    17.5500 ca         1 XOE      -0.089500
     28 F1          11.7080    37.0250    22.7730 f          1 XOE      -0.146000
     29 F2          13.8830    36.2300    24.2010 f          1 XOE      -0.139000
     30 F40         12.8440    33.8390    19.3440 f          1 XOE      -0.155000
     31 F41         17.1560    36.3920    31.4940 f          1 XOE      -0.272000
     32 N16         16.8220    36.1830    22.6640 nb         1 XOE      -0.744000
     33 N20         16.9460    31.4720    27.1840 nb         1 XOE      -0.244000
     34 N22         17.3890    33.7990    26.7840 nb         1 XOE      -0.258000
     35 N23         17.3660    32.8960    28.9490 nu         1 XOE      -0.923100
     36 N28         19.7440    35.6300    30.2430 n7         1 XOE      -0.846400
     37 N9          11.1380    35.8620    20.1620 nu         1 XOE      -0.923100
     38 O10         15.5990    34.2550    23.2020 os         1 XOE      -0.353400
     39 O32          9.8820    37.9340    20.8340 o          1 XOE      -0.527500
     40 O33         10.0730    37.2210    18.4080 o          1 XOE      -0.527500
     41 S30         10.6790    37.4020    19.7270 s6         1 XOE       1.191100
     42 H61         14.8500    33.2540    20.8970 ha         1 XOE       0.156000
     43 H131        19.1610    35.5850    25.7330 ha         1 XOE       0.139000
     44 H151        17.9470    37.8890    22.2910 h4         1 XOE       0.026100
     45 H241        17.2020    34.9990    29.2190 h1         1 XOE       0.088700
     46 H141        19.4710    37.5710    24.2460 ha         1 XOE       0.134000
     47 H181        16.8820    32.1520    23.8800 ha         1 XOE       0.141000
     48 H191        16.5990    30.2640    25.5250 h4         1 XOE       0.023100
     49 H251        16.3020    33.9230    31.2540 hc         1 XOE       0.060700
     50 H252        17.8430    33.1250    31.5670 hc         1 XOE       0.060700
     51 H272        19.9790    34.7090    32.1460 h1         1 XOE       0.064700
     52 H271        19.6960    36.4550    32.2100 h1         1 XOE       0.064700
     53 H291        19.5290    34.5710    28.4090 h1         1 XOE       0.060700
     54 H292        19.8580    33.5500    29.8160 h1         1 XOE       0.060700
     55 H311        12.4710    38.6600    20.5630 h1         1 XOE       0.107700
     56 H312        11.9360    39.2450    18.9730 h1         1 XOE       0.107700
     57 H351        14.6240    37.6830    20.6700 ha         1 XOE       0.121000
     58 H361        16.5070    36.4430    19.6390 ha         1 XOE       0.116500
     59 H371        16.3570    35.6780    17.2700 ha         1 XOE       0.114000
     60 H381        14.3110    36.1690    15.9320 ha         1 XOE       0.116500
     61 H391        12.4170    37.4050    16.9560 ha         1 XOE       0.121000
     62 H231        17.2290    32.0510    29.5060 hn         1 XOE       0.504000
     63 H281        19.2600    36.4550    29.8620 hn         1 XOE       0.422000
     64 H91         11.0570    35.3660    19.2810 hn         1 XOE       0.519000
     65 H261        17.6840    35.1380    33.0060 h1         1 XOE       0.062700
@<TRIPOS>BOND
     1     1     5 ar  
     2     1    20 ar  
     3     1    28 1   
     4     2     3 ar  
     5     2    20 ar  
     6     2    38 1   
     7     3     4 ar  
     8     3    42 1   
     9     4     5 ar  
    10     4    30 1   
    11     5    37 1   
    12     6    13 ar  
    13     6    14 ar  
    14     6    43 1   
    15     7    14 ar  
    16     7    32 ar  
    17     7    44 1   
    18     8    13 1   
    19     8    15 ar  
    20     8    34 ar  
    21     9    33 ar  
    22     9    34 ar  
    23     9    35 1   
    24    10    17 1   
    25    10    19 1   
    26    10    35 1   
    27    10    45 1   
    28    11    17 1   
    29    11    18 1   
    30    11    31 1   
    31    11    65 1   
    32    12    13 ar  
    33    12    32 ar  
    34    12    38 1   
    35    14    46 1   
    36    15    16 ar  
    37    15    47 1   
    38    16    33 ar  
    39    16    48 1   
    40    17    49 1   
    41    17    50 1   
    42    18    36 1   
    43    18    51 1   
    44    18    52 1   
    45    19    36 1   
    46    19    53 1   
    47    19    54 1   
    48    20    29 1   
    49    21    22 1   
    50    21    41 1   
    51    21    55 1   
    52    21    56 1   
    53    22    23 ar  
    54    22    27 ar  
    55    23    24 ar  
    56    23    57 1   
    57    24    25 ar  
    58    24    58 1   
    59    25    26 ar  
    60    25    59 1   
    61    26    27 ar  
    62    26    60 1   
    63    27    61 1   
    64    35    62 1   
    65    36    63 1   
    66    37    41 1   
    67    37    64 1   
    68    39    41 2   
    69    40    41 2   
@<TRIPOS>SUBSTRUCTURE
     1 XOE         1 TEMP              0 ****  ****    0 ROOT
