@<TRIPOS>MOLECULE
XOE
   65    69     1     0     0
SMALL
abcg2


@<TRIPOS>ATOM
      1 C4          14.4970    36.2260    21.3500 ca         1 XOE       0.184000
      2 C5          15.2590    34.4300    22.7350 ca         1 XOE       0.142100
      3 C6          14.7820    33.5120    21.8140 ca         1 XOE      -0.144000
      4 C7          14.1680    33.9770    20.6710 ca         1 XOE       0.201000
      5 C8          14.0220    35.3320    20.3980 ca         1 XOE       0.198000
      6 C13         19.0150    34.0490    25.5360 ca         1 XOE      -0.011000
      7 C15         19.1430    34.9190    23.3330 ca         1 XOE       0.390900
      8 C17         16.8760    33.1590    26.4200 cp         1 XOE       0.232500
      9 C21         16.5320    32.9660    28.6630 ca         1 XOE       0.389900
     10 C24         17.7910    34.3730    30.2640 c6         1 XOE       0.215500
     11 C26         18.5050    35.9500    32.0890 c6         1 XOE       0.158300
     12 C11         17.1440    34.1720    24.1000 ca         1 XOE       0.595300
     13 C12         17.6640    33.7910    25.3420 cp         1 XOE      -0.206500
     14 C14         19.7760    34.6150    24.5230 ca         1 XOE      -0.196000
     15 C18         15.9440    32.1550    26.1830 ca         1 XOE      -0.258000
     16 C19         15.3500    31.6030    27.3080 ca         1 XOE       0.151900
     17 C25         17.4440    34.9740    31.6230 c6         1 XOE      -0.119400
     18 C27         19.8960    35.3470    32.0080 c6         1 XOE       0.126800
     19 C29         19.2110    33.7940    30.2990 c6         1 XOE       0.131800
     20 C3          15.1100    35.7890    22.5080 ca         1 XOE       0.117000
     21 C31         11.2960    37.4250    18.9520 c3         1 XOE      -0.243100
     22 C34         11.9140    38.2350    17.8580 ca         1 XOE      -0.083300
     23 C35         13.0780    38.9630    18.0880 ca         1 XOE      -0.089500
     24 C36         13.6540    39.7090    17.0700 ca         1 XOE      -0.110000
     25 C37         13.0720    39.7330    15.8100 ca         1 XOE      -0.100000
     26 C38         11.9090    39.0110    15.5740 ca         1 XOE      -0.110000
     27 C39         11.3340    38.2650    16.5920 ca         1 XOE      -0.089500
     28 F1          14.3710    37.5300    21.1480 f          1 XOE      -0.146000
     29 F2          15.5640    36.6720    23.3940 f          1 XOE      -0.139000
     30 F40         13.7120    33.1040    19.7760 f          1 XOE      -0.155000
     31 F41         18.4640    37.0840    31.2610 f          1 XOE      -0.272000
     32 N16         17.8460    34.7050    23.1340 nb         1 XOE      -0.744000
     33 N20         15.6200    31.9900    28.5400 nb         1 XOE      -0.244000
     34 N22         17.1700    33.5580    27.6520 nb         1 XOE      -0.258000
     35 N23         16.8020    33.3800    29.9160 nu         1 XOE      -0.923100
     36 N28         20.2140    34.7520    30.7250 n7         1 XOE      -0.846400
     37 N9          13.4700    35.7990    19.1950 nu         1 XOE      -0.923100
     38 O10         15.8150    33.9860    23.8950 os         1 XOE      -0.353400
     39 O32         11.2270    35.0250    20.0380 o          1 XOE      -0.527500
     40 O33         11.6560    35.2030    17.5580 o          1 XOE      -0.527500
     41 S30         11.8340    35.7080    18.9080 s6         1 XOE       1.191100
     42 H61         14.8930    32.4500    21.9930 ha         1 XOE       0.156000
     43 H131        19.4700    33.7900    26.4830 ha         1 XOE       0.139000
     44 H151        19.6910    35.3530    22.5060 h4         1 XOE       0.026100
     45 H241        17.7570    35.1600    29.5070 h1         1 XOE       0.088700
     46 H141        20.8300    34.8090    24.6540 ha         1 XOE       0.134000
     47 H181        15.7110    31.7900    25.1960 ha         1 XOE       0.141000
     48 H191        14.6230    30.8050    27.2020 h4         1 XOE       0.023100
     49 H251        16.4660    35.4600    31.5950 hc         1 XOE       0.060700
     50 H252        17.3780    34.1760    32.3720 hc         1 XOE       0.060700
     51 H272        19.9690    34.5760    32.7820 h1         1 XOE       0.064700
     52 H271        20.6460    36.1040    32.2500 h1         1 XOE       0.064700
     53 H291        19.4820    33.4110    29.3120 h1         1 XOE       0.060700
     54 H292        19.2260    32.9420    30.9880 h1         1 XOE       0.060700
     55 H311        11.5500    37.7950    19.9460 h1         1 XOE       0.107700
     56 H312        10.2080    37.3800    18.8670 h1         1 XOE       0.107700
     57 H351        13.5350    38.9510    19.0690 ha         1 XOE       0.121000
     58 H361        14.5570    40.2740    17.2630 ha         1 XOE       0.116500
     59 H371        13.5190    40.3170    15.0160 ha         1 XOE       0.114000
     60 H381        11.4470    39.0300    14.5950 ha         1 XOE       0.116500
     61 H391        10.4220    37.7130    16.4040 ha         1 XOE       0.121000
     62 H231        16.3710    32.8500    30.6570 hn         1 XOE       0.504000
     63 H281        20.3160    35.4770    30.0250 hn         1 XOE       0.422000
     64 H91         14.0480    35.7420    18.3640 hn         1 XOE       0.519000
     65 H261        18.2940    36.2880    33.1070 h1         1 XOE       0.062700
@<TRIPOS>BOND
     1     1     5 ar  
     2     1    20 ar  
     3     1    28 1   
     4     2     3 ar  
     5     2    20 ar  
     6     2    38 1   
     7     3     4 ar  
     8     3    42 1   
     9     4     5 ar  
    10     4    30 1   
    11     5    37 1   
    12     6    13 ar  
    13     6    14 ar  
    14     6    43 1   
    15     7    14 ar  
    16     7    32 ar  
    17     7    44 1   
    18     8    13 1   
    19     8    15 ar  
    20     8    34 ar  
    21     9    33 ar  
    22     9    34 ar  
    23     9    35 1   
    24    10    17 1   
    25    10    19 1   
    26    10    35 1   
    27    10    45 1   
    28    11    17 1   
    29    11    18 1   
    30    11    31 1   
    31    11    65 1   
    32    12    13 ar  
    33    12    32 ar  
    34    12    38 1   
    35    14    46 1   
    36    15    16 ar  
    37    15    47 1   
    38    16    33 ar  
    39    16    48 1   
    40    17    49 1   
    41    17    50 1   
    42    18    36 1   
    43    18    51 1   
    44    18    52 1   
    45    19    36 1   
    46    19    53 1   
    47    19    54 1   
    48    20    29 1   
    49    21    22 1   
    50    21    41 1   
    51    21    55 1   
    52    21    56 1   
    53    22    23 ar  
    54    22    27 ar  
    55    23    24 ar  
    56    23    57 1   
    57    24    25 ar  
    58    24    58 1   
    59    25    26 ar  
    60    25    59 1   
    61    26    27 ar  
    62    26    60 1   
    63    27    61 1   
    64    35    62 1   
    65    36    63 1   
    66    37    41 1   
    67    37    64 1   
    68    39    41 2   
    69    40    41 2   
@<TRIPOS>SUBSTRUCTURE
     1 XOE         1 TEMP              0 ****  ****    0 ROOT
