@<TRIPOS>MOLECULE
XOF
   58    61     1     0     0
SMALL
abcg2


@<TRIPOS>ATOM
      1 C24         -5.8390    -9.8980   -38.7480 ca         1 XOF      -0.088000
      2 C25         -5.9830    -9.8510   -40.1280 ca         1 XOF      -0.104000
      3 C30         -4.5880   -14.5720   -38.7560 c5         1 XOF       0.098000
      4 C28         -5.7080   -12.3120   -38.8370 ca         1 XOF      -0.054000
      5 C27         -5.8600   -12.2530   -40.2220 ca         1 XOF      -0.122000
      6 C26         -5.9910   -11.0310   -40.8660 ca         1 XOF      -0.105000
      7 C23         -5.6890   -11.1200   -38.0980 ca         1 XOF      -0.036000
      8 C19         -3.9740   -12.4010   -34.4480 ca         1 XOF       0.010000
      9 C18         -4.2890   -11.0580   -34.6300 ca         1 XOF      -0.159600
     10 C13         -3.6190   -12.8730   -33.1890 ca         1 XOF      -0.315500
     11 C16         -4.2880   -10.2160   -33.5160 ca         1 XOF       0.209000
     12 C15         -3.9630   -10.6920   -32.2530 ca         1 XOF      -0.132000
     13 C14         -3.6060   -12.0230   -32.0900 ca         1 XOF       0.008000
     14 C33         -6.2550   -14.0480   -37.1730 c          1 XOF       0.557000
     15 C01          0.8710   -14.4030   -32.8800 c3         1 XOF      -0.092100
     16 C02         -0.5020   -13.7590   -32.8080 c3         1 XOF       0.214800
     17 C04         -1.2820   -14.6380   -35.0080 ca         1 XOF       0.239000
     18 C05         -1.1760   -15.8990   -35.5840 ca         1 XOF      -0.098500
     19 C06         -0.9460   -16.0200   -36.9490 ca         1 XOF      -0.106000
     20 C07         -0.8210   -14.8810   -37.7390 ca         1 XOF      -0.109000
     21 C08         -0.9210   -13.6200   -37.1600 ca         1 XOF      -0.106000
     22 C09         -1.1470   -13.4950   -35.7940 ca         1 XOF      -0.098500
     23 C31         -4.4680   -15.5810   -37.6110 c5         1 XOF      -0.091400
     24 C32         -5.8080   -15.4620   -36.8820 c5         1 XOF      -0.160400
     25 N03         -1.4930   -14.5390   -33.5860 nh         1 XOF      -0.777300
     26 N22         -5.4900   -11.1820   -36.7000 ns         1 XOF      -0.158000
     27 N29         -5.5160   -13.5660   -38.2080 n          1 XOF      -0.242400
     28 O11         -3.0030   -14.8560   -31.6240 o          1 XOF      -0.541500
     29 O12         -3.8170   -15.3760   -33.9220 o          1 XOF      -0.541500
     30 O21         -3.7370    -9.7260   -36.5200 o          1 XOF      -0.576100
     31 S10         -3.0470   -14.5440   -33.0320 sy         1 XOF       1.200600
     32 CL17        -4.7410    -8.5420   -33.6790 cl         1 XOF      -0.167000
     33 H241        -5.8310    -8.9910   -38.1620 ha         1 XOF       0.136000
     34 H251        -6.0920    -8.8950   -40.6240 ha         1 XOF       0.120000
     35 H302        -5.0110   -15.0250   -39.6550 h1         1 XOF       0.051700
     36 H301        -3.6430   -14.0970   -39.0130 h1         1 XOF       0.051700
     37 H271        -5.8720   -13.1720   -40.7930 ha         1 XOF       0.116000
     38 H261        -6.1060   -11.0020   -41.9410 ha         1 XOF       0.117000
     39 H191        -3.9770   -13.0680   -35.2970 ha         1 XOF       0.138000
     40 H151        -3.9840   -10.0240   -31.4040 ha         1 XOF       0.139000
     41 H141        -3.3280   -12.3950   -31.1140 ha         1 XOF       0.144000
     42 H011         1.5760   -13.8190   -32.2870 hc         1 XOF       0.047367
     43 H013         0.8410   -15.4200   -32.4860 hc         1 XOF       0.047367
     44 H012         1.2400   -14.4400   -33.9060 hc         1 XOF       0.047367
     45 H022        -0.4690   -12.7290   -33.1740 h1         1 XOF       0.051700
     46 H021        -0.8500   -13.7340   -31.7780 h1         1 XOF       0.051700
     47 H051        -1.2760   -16.7740   -34.9570 ha         1 XOF       0.128500
     48 H061        -0.8690   -17.0030   -37.3960 ha         1 XOF       0.123000
     49 H071        -0.6470   -14.9760   -38.8030 ha         1 XOF       0.117000
     50 H081        -0.8280   -12.7310   -37.7700 ha         1 XOF       0.123000
     51 H091        -1.2220   -12.5140   -35.3450 ha         1 XOF       0.128500
     52 H311        -4.2590   -16.5850   -37.9740 hc         1 XOF       0.065200
     53 H312        -3.6600   -15.2840   -36.9450 hc         1 XOF       0.065200
     54 H322        -6.5640   -16.1400   -37.2890 hc         1 XOF       0.092700
     55 H321        -5.7470   -15.6260   -35.8080 hc         1 XOF       0.092700
     56 H221        -6.0560   -11.8680   -36.2090 hn         1 XOF       0.192000
     57 O34         -7.1380   -13.4240   -36.5810 o          1 XOF      -0.565000
     58 C20         -4.4880   -10.5620   -36.0360 c          1 XOF       0.620700
@<TRIPOS>BOND
     1     1     2 ar  
     2     1     7 ar  
     3     1    33 1   
     4     2     6 ar  
     5     2    34 1   
     6     3    23 1   
     7     3    27 1   
     8     3    35 1   
     9     3    36 1   
    10     4     5 ar  
    11     4     7 ar  
    12     4    27 1   
    13     5     6 ar  
    14     5    37 1   
    15     6    38 1   
    16     7    26 1   
    17     8     9 ar  
    18     8    10 ar  
    19     8    39 1   
    20     9    11 ar  
    21     9    58 1   
    22    10    13 ar  
    23    10    31 1   
    24    11    12 ar  
    25    11    32 1   
    26    12    13 ar  
    27    12    40 1   
    28    13    41 1   
    29    14    24 1   
    30    14    27 1   
    31    14    57 2   
    32    15    16 1   
    33    15    42 1   
    34    15    43 1   
    35    15    44 1   
    36    16    25 1   
    37    16    45 1   
    38    16    46 1   
    39    17    18 ar  
    40    17    22 ar  
    41    17    25 1   
    42    18    19 ar  
    43    18    47 1   
    44    19    20 ar  
    45    19    48 1   
    46    20    21 ar  
    47    20    49 1   
    48    21    22 ar  
    49    21    50 1   
    50    22    51 1   
    51    23    24 1   
    52    23    52 1   
    53    23    53 1   
    54    24    54 1   
    55    24    55 1   
    56    25    31 1   
    57    26    56 1   
    58    26    58 1   
    59    28    31 2   
    60    29    31 2   
    61    30    58 2   
@<TRIPOS>SUBSTRUCTURE
     1 XOF         1 TEMP              0 ****  ****    0 ROOT
