@<TRIPOS>MOLECULE
XOF
   58    61     1     0     0
SMALL
No Charge or Current Charge


@<TRIPOS>ATOM
      1 C24         -5.5880   -10.2160   -39.0930 ca         1 XOF      -0.088000
      2 C25         -5.9900   -10.2480   -40.4370 ca         1 XOF      -0.104000
      3 C30         -4.9610   -15.1160   -38.8700 c5         1 XOF       0.098000
      4 C28         -5.6220   -12.6640   -39.0110 ca         1 XOF      -0.054000
      5 C27         -6.0740   -12.6710   -40.3470 ca         1 XOF      -0.122000
      6 C26         -6.2370   -11.4760   -41.0640 ca         1 XOF      -0.105000
      7 C23         -5.4140   -11.4150   -38.3640 ca         1 XOF      -0.036000
      8 C19         -3.8620   -12.2930   -34.5550 ca         1 XOF       0.010000
      9 C18         -4.0270   -10.9110   -34.8200 ca         1 XOF      -0.159600
     10 C13         -3.5120   -12.7490   -33.2700 ca         1 XOF      -0.315500
     11 C16         -3.8570    -9.9970   -33.7480 ca         1 XOF       0.209000
     12 C15         -3.5210   -10.4620   -32.4660 ca         1 XOF      -0.132000
     13 C14         -3.3390   -11.8300   -32.2210 ca         1 XOF       0.008000
     14 C33         -6.3470   -14.2110   -37.1220 c          1 XOF       0.557000
     15 C01          0.8540   -14.9050   -32.7860 c3         1 XOF      -0.092100
     16 C02         -0.5720   -14.5090   -32.3560 c3         1 XOF       0.214800
     17 C04         -1.2750   -14.2090   -34.7540 ca         1 XOF       0.239000
     18 C05         -1.4850   -15.1040   -35.8180 ca         1 XOF      -0.098500
     19 C06         -1.2170   -14.7170   -37.1440 ca         1 XOF      -0.106000
     20 C07         -0.7310   -13.4260   -37.4120 ca         1 XOF      -0.109000
     21 C08         -0.5040   -12.5300   -36.3550 ca         1 XOF      -0.106000
     22 C09         -0.7690   -12.9230   -35.0310 ca         1 XOF      -0.098500
     23 C31         -4.8520   -16.0350   -37.6170 c5         1 XOF      -0.091400
     24 C32         -6.1950   -15.7150   -36.9190 c5         1 XOF      -0.160400
     25 N03         -1.5780   -14.5920   -33.4340 nh         1 XOF      -0.777300
     26 N22         -4.9760   -11.4060   -37.0130 ns         1 XOF      -0.158000
     27 N29         -5.6350   -13.9270   -38.3050 n          1 XOF      -0.242400
     28 O11         -3.3200   -14.7880   -31.5540 o          1 XOF      -0.541500
     29 O12         -3.9820   -15.2790   -33.9810 o          1 XOF      -0.541500
     30 O21         -3.9900    -9.3650   -36.6660 o          1 XOF      -0.576100
     31 S10         -3.2250   -14.5050   -32.9910 sy         1 XOF       1.200600
     32 Cl17        -4.1020    -8.2560   -33.9190 cl         1 XOF      -0.167000
     33 H241        -5.4330    -9.2470   -38.6280 ha         1 XOF       0.136000
     34 H251        -6.1250    -9.3190   -40.9870 ha         1 XOF       0.120000
     35 H302        -5.5760   -15.5760   -39.6540 h1         1 XOF       0.051700
     36 H301        -3.9770   -14.8720   -39.2910 h1         1 XOF       0.051700
     37 H271        -6.3080   -13.6120   -40.8400 ha         1 XOF       0.116000
     38 H261        -6.5710   -11.5020   -42.0990 ha         1 XOF       0.117000
     39 H191        -3.9520   -13.0260   -35.3560 ha         1 XOF       0.138000
     40 H151        -3.3970    -9.7520   -31.6530 ha         1 XOF       0.139000
     41 H141        -3.0620   -12.1660   -31.2230 ha         1 XOF       0.144000
     42 H011         1.5260   -14.8900   -31.9200 hc         1 XOF       0.047367
     43 H013         0.8610   -15.9160   -33.2090 hc         1 XOF       0.047367
     44 H012         1.2510   -14.2100   -33.5340 hc         1 XOF       0.047367
     45 H022        -0.5490   -13.4890   -31.9490 h1         1 XOF       0.051700
     46 H021        -0.8520   -15.1820   -31.5350 h1         1 XOF       0.051700
     47 H051        -1.8610   -16.1030   -35.6130 ha         1 XOF       0.128500
     48 H061        -1.3880   -15.4150   -37.9600 ha         1 XOF       0.123000
     49 H071        -0.5270   -13.1230   -38.4370 ha         1 XOF       0.117000
     50 H081        -0.1250   -11.5310   -36.5600 ha         1 XOF       0.123000
     51 H091        -0.6040   -12.2220   -34.2180 ha         1 XOF       0.128500
     52 H311        -4.7340   -17.0940   -37.8720 hc         1 XOF       0.065200
     53 H312        -4.0040   -15.7460   -36.9870 hc         1 XOF       0.065200
     54 H322        -7.0060   -16.2070   -37.4680 hc         1 XOF       0.092700
     55 H321        -6.2620   -15.9870   -35.8600 hc         1 XOF       0.092700
     56 H221        -5.2110   -12.2550   -36.5160 hn         1 XOF       0.192000
     57 O34         -6.8250   -13.3910   -36.3490 o          1 XOF      -0.565000
     58 C20         -4.3420   -10.4540   -36.2290 c          1 XOF       0.620700
@<TRIPOS>BOND
     1     1     2 ar  
     2     1     7 ar  
     3     1    33 1   
     4     2     6 ar  
     5     2    34 1   
     6     3    23 1   
     7     3    27 1   
     8     3    35 1   
     9     3    36 1   
    10     4     5 ar  
    11     4     7 ar  
    12     4    27 1   
    13     5     6 ar  
    14     5    37 1   
    15     6    38 1   
    16     7    26 1   
    17     8     9 ar  
    18     8    10 ar  
    19     8    39 1   
    20     9    11 ar  
    21     9    58 1   
    22    10    13 ar  
    23    10    31 1   
    24    11    12 ar  
    25    11    32 1   
    26    12    13 ar  
    27    12    40 1   
    28    13    41 1   
    29    14    24 1   
    30    14    27 1   
    31    14    57 2   
    32    15    16 1   
    33    15    42 1   
    34    15    43 1   
    35    15    44 1   
    36    16    25 1   
    37    16    45 1   
    38    16    46 1   
    39    17    18 ar  
    40    17    22 ar  
    41    17    25 1   
    42    18    19 ar  
    43    18    47 1   
    44    19    20 ar  
    45    19    48 1   
    46    20    21 ar  
    47    20    49 1   
    48    21    22 ar  
    49    21    50 1   
    50    22    51 1   
    51    23    24 1   
    52    23    52 1   
    53    23    53 1   
    54    24    54 1   
    55    24    55 1   
    56    25    31 1   
    57    26    56 1   
    58    26    58 1   
    59    28    31 2   
    60    29    31 2   
    61    30    58 2   
@<TRIPOS>SUBSTRUCTURE
     1 XOF         1 TEMP              0 ****  ****    0 ROOT
