@<TRIPOS>MOLECULE
XOG
   26    25     1     0     0
SMALL
No Charge or Current Charge


@<TRIPOS>ATOM
      1 O2           5.3010    -0.9780     0.0060 o          1 XOG      -0.520100
      2 C8           4.3960    -0.1540    -0.0410 c          1 XOG       0.571100
      3 C7           2.9820    -0.5380    -0.3070 ce         1 XOG      -0.331200
      4 C6           1.9280     0.3100    -0.3650 c2         1 XOG      -0.037400
      5 C10          2.0060     1.8160    -0.1560 c3         1 XOG      -0.071900
      6 C5           0.5200    -0.1730    -0.6760 c3         1 XOG      -0.053200
      7 C4          -0.3010    -0.4680     0.5970 c3         1 XOG      -0.048200
      8 C3          -1.7120    -0.9280     0.2790 c2         1 XOG      -0.161200
      9 C2          -2.8130    -0.1500     0.1220 ce         1 XOG      -0.211400
     10 C9          -2.7660     1.3750     0.2220 c3         1 XOG      -0.043900
     11 C1          -4.1390    -0.7840    -0.2070 c          1 XOG       0.567100
     12 O1          -5.1830    -0.1610    -0.3680 o          1 XOG      -0.514100
     13 H2           4.6060     0.9260     0.1110 h4         1 XOG      -0.015800
     14 H4           2.8350    -1.6040    -0.4690 ha         1 XOG       0.194000
     15 H5           2.2400     2.3280    -1.0970 hc         1 XOG       0.050700
     16 H6           1.0590     2.2270     0.2150 hc         1 XOG       0.050700
     17 H7           2.7710     2.0910     0.5770 hc         1 XOG       0.050700
     18 H8          -0.0100     0.5620    -1.2950 hc         1 XOG       0.056200
     19 H9           0.5650    -1.0890    -1.2790 hc         1 XOG       0.056200
     20 H10          0.2170    -1.2420     1.1770 hc         1 XOG       0.056700
     21 H11         -0.3220     0.4220     1.2370 hc         1 XOG       0.056700
     22 H12         -1.7940    -2.0140     0.1820 ha         1 XOG       0.171000
     23 H13         -3.5670     1.8560    -0.3510 hc         1 XOG       0.047700
     24 H14         -2.8650     1.7020     1.2640 hc         1 XOG       0.047700
     25 H15         -1.8240     1.7820    -0.1620 hc         1 XOG       0.047700
     26 H16         -4.1270    -1.8930    -0.2970 h4         1 XOG      -0.014800
@<TRIPOS>BOND
     1     1     2 2   
     2     2     3 1   
     3     2    13 1   
     4     3     4 2   
     5     3    14 1   
     6     4     5 1   
     7     4     6 1   
     8     5    15 1   
     9     5    16 1   
    10     5    17 1   
    11     6     7 1   
    12     6    18 1   
    13     6    19 1   
    14     7     8 1   
    15     7    20 1   
    16     7    21 1   
    17     8     9 2   
    18     8    22 1   
    19     9    10 1   
    20     9    11 1   
    21    10    23 1   
    22    10    24 1   
    23    10    25 1   
    24    11    12 2   
    25    11    26 1   
@<TRIPOS>SUBSTRUCTURE
     1 XOG         1 TEMP              0 ****  ****    0 ROOT
