@<TRIPOS>MOLECULE
XOG
   26    25     1     0     0
SMALL
bcc


@<TRIPOS>ATOM
      1 O2           5.2420    -1.0630     0.0770 o          1 XOG      -0.520100
      2 C8           4.3470    -0.2440     0.0080 c          1 XOG       0.571100
      3 C7           2.9700    -0.5890    -0.3090 ce         1 XOG      -0.281200
      4 C6           1.9560     0.2880    -0.4120 c2         1 XOG      -0.037400
      5 C10          2.0620     1.7690    -0.2390 c3         1 XOG      -0.071900
      6 C5           0.5750    -0.2150    -0.7190 c3         1 XOG      -0.053200
      7 C4          -0.2920    -0.3110     0.5530 c3         1 XOG      -0.048200
      8 C3          -1.6590    -0.7980     0.2170 c2         1 XOG      -0.111200
      9 C2          -2.7850    -0.0740     0.1470 ce         1 XOG      -0.211400
     10 C9          -2.9210     1.3920     0.4080 c3         1 XOG      -0.043900
     11 C1          -3.9960    -0.8090    -0.2330 c          1 XOG       0.567100
     12 O1          -5.0930    -0.3070    -0.3450 o          1 XOG      -0.514100
     13 H2           4.5610     0.8210     0.1910 h4         1 XOG      -0.015800
     14 H4           2.7720    -1.6440    -0.4750 ha         1 XOG       0.144000
     15 H5           1.7870     2.2620    -1.1740 hc         1 XOG       0.050700
     16 H6           1.3500     2.1170     0.5120 hc         1 XOG       0.050700
     17 H7           3.0470     2.1230     0.0510 hc         1 XOG       0.050700
     18 H8           0.0880     0.4610    -1.4270 hc         1 XOG       0.056200
     19 H9           0.6260    -1.1980    -1.1910 hc         1 XOG       0.056200
     20 H10          0.1780    -1.0150     1.2430 hc         1 XOG       0.056700
     21 H11         -0.3300     0.6540     1.0590 hc         1 XOG       0.056700
     22 H12         -1.7270    -1.8570    -0.0230 ha         1 XOG       0.121000
     23 H13         -3.2760     1.9130    -0.4820 hc         1 XOG       0.047700
     24 H14         -3.6490     1.5830     1.1980 hc         1 XOG       0.047700
     25 H15         -1.9810     1.8500     0.7040 hc         1 XOG       0.047700
     26 H16         -3.8470    -1.8880    -0.4180 h4         1 XOG      -0.014800
@<TRIPOS>BOND
     1     1     2 2   
     2     2     3 1   
     3     2    13 1   
     4     3     4 2   
     5     3    14 1   
     6     4     5 1   
     7     4     6 1   
     8     5    15 1   
     9     5    16 1   
    10     5    17 1   
    11     6     7 1   
    12     6    18 1   
    13     6    19 1   
    14     7     8 1   
    15     7    20 1   
    16     7    21 1   
    17     8     9 2   
    18     8    22 1   
    19     9    10 1   
    20     9    11 1   
    21    10    23 1   
    22    10    24 1   
    23    10    25 1   
    24    11    12 2   
    25    11    26 1   
@<TRIPOS>SUBSTRUCTURE
     1 XOG         1 TEMP              0 ****  ****    0 ROOT
