@<TRIPOS>MOLECULE
XOH
   69    73     1     0     0
SMALL
abcg2


@<TRIPOS>ATOM
      1 C2         -29.0540    -3.2800   -25.0130 c          1 XOH       0.650300
      2 C4         -27.9620    -2.8090   -22.8510 c3         1 XOH       0.070700
      3 C5         -27.6450    -3.9900   -21.9920 cc         1 XOH       0.200300
      4 C11        -30.2820    -3.8240   -25.6230 cc         1 XOH      -0.206400
      5 C12        -30.7290    -3.4240   -26.8560 cd         1 XOH      -0.090100
      6 N13        -31.8820    -4.0640   -27.1630 na         1 XOH      -0.315400
      7 C16        -33.3680    -6.4940   -25.0860 ca         1 XOH       0.389900
      8 C17        -32.4480    -6.5190   -24.0330 ca         1 XOH      -0.262000
      9 C18        -31.3530    -5.6750   -24.0740 ca         1 XOH       0.205100
     10 C21        -30.8070    -6.2180   -20.8510 ca         1 XOH       0.233500
     11 C23        -30.7750    -7.0990   -19.7900 ca         1 XOH      -0.214000
     12 C24        -30.3020    -8.3960   -20.0080 ca         1 XOH       0.072000
     13 C30        -28.9220   -10.4240   -15.0040 c3         1 XOH      -0.108400
     14 C31        -28.9280   -10.5390   -13.4870 c3         1 XOH       0.173800
     15 C33        -27.6640   -10.2200   -11.4720 c6         1 XOH       0.126300
     16 C34        -26.2650   -10.1020   -10.8990 c6         1 XOH       0.152600
     17 C36        -25.4310   -11.5080   -12.5420 c6         1 XOH       0.152600
     18 C37        -26.8110   -11.6540   -13.1560 c6         1 XOH       0.126300
     19 C38        -29.8620    -8.7610   -21.2860 ca         1 XOH      -0.214000
     20 C39        -29.9100    -7.8450   -22.3070 ca         1 XOH       0.233500
     21 O35        -25.4990   -11.2570   -11.1570 os         1 XOH      -0.449000
     22 N32        -27.6020   -10.4630   -12.9030 n3         1 XOH      -0.712600
     23 C29        -30.3350   -10.5010   -15.5700 c3         1 XOH       0.111000
     24 N28        -30.3720   -10.4270   -17.0130 ns         1 XOH      -0.514900
     25 C26        -30.4070    -9.2480   -17.6740 c          1 XOH       0.662100
     26 O27        -30.5690    -8.1710   -17.1220 o          1 XOH      -0.604100
     27 N25        -30.2630    -9.3840   -19.0400 ns         1 XOH      -0.162000
     28 F40        -29.4870    -8.1890   -23.5240 f          1 XOH      -0.155000
     29 F22        -31.2690    -4.9810   -20.6580 f          1 XOH      -0.155000
     30 C20        -30.3890    -6.5570   -22.1250 ca         1 XOH      -0.054900
     31 O19        -30.3800    -5.6410   -23.1330 os         1 XOH      -0.217200
     32 C41        -31.2260    -4.8000   -25.1560 ca         1 XOH      -0.136800
     33 N15        -33.2680    -5.7210   -26.1530 nb         1 XOH      -0.693000
     34 C14        -32.2160    -4.9180   -26.1550 ca         1 XOH       0.384500
     35 O1         -28.0740    -2.9980   -25.6890 o          1 XOH      -0.612100
     36 N3         -29.1090    -3.0870   -23.6780 ns         1 XOH      -0.495900
     37 N6         -27.7830    -3.9840   -20.7070 nd         1 XOH      -0.329300
     38 O7         -27.4360    -5.2050   -20.2820 os         1 XOH       0.100600
     39 N8         -27.0770    -5.9970   -21.3060 nd         1 XOH      -0.356300
     40 C9         -27.1950    -5.2880   -22.3830 cc         1 XOH       0.261300
     41 C10        -26.8950    -5.8030   -23.7400 c3         1 XOH      -0.135400
     42 H1         -27.1140    -2.5720   -23.4920 h1         1 XOH       0.081700
     43 H2         -28.1490    -1.9400   -22.2190 h1         1 XOH       0.081700
     44 H3         -30.3020    -2.6970   -27.5290 h4         1 XOH       0.234000
     45 H4         -32.4170    -3.9300   -28.0080 hn         1 XOH       0.368000
     46 H5         -34.2230    -7.1580   -25.0460 h4         1 XOH       0.023100
     47 H6         -32.6130    -7.2040   -23.2130 ha         1 XOH       0.135000
     48 H7         -31.1240    -6.7740   -18.8230 ha         1 XOH       0.156500
     49 H8         -28.3250   -11.2210   -15.4540 hc         1 XOH       0.056200
     50 H9         -28.4590    -9.4760   -15.2910 hc         1 XOH       0.056200
     51 H10        -29.5190    -9.7140   -13.0790 h1         1 XOH       0.031700
     52 H11        -29.4460   -11.4670   -13.1850 h1         1 XOH       0.031700
     53 H13        -28.2110   -11.0210   -10.9440 h1         1 XOH       0.039950
     54 H14        -25.7730    -9.2130   -11.3190 h1         1 XOH       0.051950
     55 H15        -26.3130    -9.9770    -9.8160 h1         1 XOH       0.051950
     56 H16        -24.8610   -12.4290   -12.6810 h1         1 XOH       0.051950
     57 H17        -24.8930   -10.6980   -13.0540 h1         1 XOH       0.051950
     58 H18        -27.3030   -12.5570   -12.7530 h1         1 XOH       0.039950
     59 H19        -26.6900   -11.8080   -14.2290 h1         1 XOH       0.039950
     60 H20        -29.4790    -9.7550   -21.4810 ha         1 XOH       0.156500
     61 H22        -30.9560    -9.7040   -15.1600 h1         1 XOH       0.060200
     62 H23        -30.8010   -11.4430   -15.2780 h1         1 XOH       0.060200
     63 H24        -30.1470   -11.2720   -17.5140 hn         1 XOH       0.307500
     64 H25        -30.0390   -10.3030   -19.3900 hn         1 XOH       0.150000
     65 H26        -29.9740    -3.2680   -23.1960 hn         1 XOH       0.330500
     66 H27        -26.4300    -6.7840   -23.6870 hc         1 XOH       0.066700
     67 H28        -27.8080    -5.8870   -24.3280 hc         1 XOH       0.066700
     68 H29        -26.2240    -5.1250   -24.2670 hc         1 XOH       0.066700
     69 H12        -28.2010    -9.2860   -11.2850 h1         1 XOH       0.039950
@<TRIPOS>BOND
     1     1     4 1   
     2     1    35 2   
     3     1    36 1   
     4     2     3 1   
     5     2    36 1   
     6     2    42 1   
     7     2    43 1   
     8     3    37 2   
     9     3    40 1   
    10     4     5 2   
    11     4    32 1   
    12     5     6 1   
    13     5    44 1   
    14     6    34 1   
    15     6    45 1   
    16     7     8 ar  
    17     7    33 ar  
    18     7    46 1   
    19     8     9 ar  
    20     8    47 1   
    21     9    31 1   
    22     9    32 ar  
    23    10    11 ar  
    24    10    29 1   
    25    10    30 ar  
    26    11    12 ar  
    27    11    48 1   
    28    12    19 ar  
    29    12    27 1   
    30    13    14 1   
    31    13    23 1   
    32    13    49 1   
    33    13    50 1   
    34    14    22 1   
    35    14    51 1   
    36    14    52 1   
    37    15    16 1   
    38    15    22 1   
    39    15    53 1   
    40    15    69 1   
    41    16    21 1   
    42    16    54 1   
    43    16    55 1   
    44    17    18 1   
    45    17    21 1   
    46    17    56 1   
    47    17    57 1   
    48    18    22 1   
    49    18    58 1   
    50    18    59 1   
    51    19    20 ar  
    52    19    60 1   
    53    20    28 1   
    54    20    30 ar  
    55    23    24 1   
    56    23    61 1   
    57    23    62 1   
    58    24    25 1   
    59    24    63 1   
    60    25    26 2   
    61    25    27 1   
    62    27    64 1   
    63    30    31 1   
    64    32    34 ar  
    65    33    34 ar  
    66    36    65 1   
    67    37    38 1   
    68    38    39 1   
    69    39    40 2   
    70    40    41 1   
    71    41    66 1   
    72    41    67 1   
    73    41    68 1   
@<TRIPOS>SUBSTRUCTURE
     1 XOH         1 TEMP              0 ****  ****    0 ROOT
