@<TRIPOS>MOLECULE
XOH
   69    73     1     0     0
SMALL
No Charge or Current Charge


@<TRIPOS>ATOM
      1 C2         -28.8610    -3.5840   -25.0330 c          1 XOH       0.650300
      2 C4         -27.5100    -3.8820   -22.9300 c3         1 XOH       0.070700
      3 C5         -27.5620    -4.6670   -21.6410 cc         1 XOH       0.200300
      4 C11        -30.1640    -3.8900   -25.6960 cc         1 XOH      -0.206400
      5 C12        -30.3610    -3.5710   -27.0330 cd         1 XOH      -0.090100
      6 N13        -31.6210    -4.0520   -27.4450 na         1 XOH      -0.315400
      7 C16        -33.8630    -5.7440   -25.1660 ca         1 XOH       0.389900
      8 C17        -33.1070    -5.6770   -23.9880 ca         1 XOH      -0.262000
      9 C18        -31.8420    -5.0710   -24.0200 ca         1 XOH       0.205100
     10 C21        -31.1220    -5.7710   -20.5940 ca         1 XOH       0.233500
     11 C23        -30.9200    -6.8050   -19.6670 ca         1 XOH      -0.214000
     12 C24        -30.5290    -8.0890   -20.1030 ca         1 XOH       0.072000
     13 C30        -28.7660   -10.4770   -15.2700 c3         1 XOH      -0.108400
     14 C31        -28.7280   -10.9350   -13.7960 c3         1 XOH       0.173800
     15 C33        -27.7570   -10.6580   -11.5380 c6         1 XOH       0.126300
     16 C34        -26.6000   -10.0330   -10.7020 c6         1 XOH       0.152600
     17 C36        -25.1230   -10.1300   -12.6020 c6         1 XOH       0.152600
     18 C37        -26.2500   -10.7520   -13.4810 c6         1 XOH       0.126300
     19 C38        -30.3480    -8.3080   -21.4800 ca         1 XOH      -0.214000
     20 C39        -30.5540    -7.2760   -22.4070 ca         1 XOH       0.233500
     21 O35        -25.3190   -10.4750   -11.2100 os         1 XOH      -0.449000
     22 N32        -27.6160   -10.3620   -12.9990 n3         1 XOH      -0.712600
     23 C29        -30.0230   -10.9780   -16.0080 c3         1 XOH       0.111000
     24 N28        -30.0400   -10.5610   -17.4130 ns         1 XOH      -0.514900
     25 C26        -30.3950    -9.3050   -17.8520 c          1 XOH       0.662100
     26 O27        -30.7650    -8.4260   -17.0880 o          1 XOH      -0.604100
     27 N25        -30.2890    -9.1780   -19.2260 ns         1 XOH      -0.162000
     28 F40        -30.3330    -7.5220   -23.7180 f          1 XOH      -0.155000
     29 F22        -31.4850    -4.5470   -20.1480 f          1 XOH      -0.155000
     30 C20        -30.9510    -5.9950   -21.9710 ca         1 XOH      -0.054900
     31 O19        -31.1260    -4.9490   -22.8560 os         1 XOH      -0.217200
     32 C41        -31.3890    -4.5640   -25.2580 ca         1 XOH      -0.136800
     33 N15        -33.4330    -5.2310   -26.3400 nb         1 XOH      -0.693000
     34 C14        -32.2190    -4.6530   -26.3610 ca         1 XOH       0.384500
     35 O1         -27.9550    -2.9820   -25.5930 o          1 XOH      -0.612100
     36 N3         -28.7150    -4.0430   -23.7550 ns         1 XOH      -0.495900
     37 N6         -27.8760    -4.1460   -20.4790 nd         1 XOH      -0.329300
     38 O7         -27.7870    -5.2790   -19.6040 os         1 XOH       0.100600
     39 N8         -27.4100    -6.4720   -20.3040 nd         1 XOH      -0.356300
     40 C9         -27.2900    -6.0440   -21.5370 cc         1 XOH       0.261300
     41 C10        -26.9090    -6.9320   -22.6920 c3         1 XOH      -0.135400
     42 H1         -26.6320    -4.1970   -23.5100 h1         1 XOH       0.081700
     43 H2         -27.3850    -2.8160   -22.6950 h1         1 XOH       0.081700
     44 H3         -29.6820    -3.0700   -27.7230 h4         1 XOH       0.234000
     45 H4         -32.0300    -3.9790   -28.3680 hn         1 XOH       0.368000
     46 H5         -34.8490    -6.2050   -25.1680 h4         1 XOH       0.023100
     47 H6         -33.5120    -6.0780   -23.0640 ha         1 XOH       0.135000
     48 H7         -31.0630    -6.5800   -18.6170 ha         1 XOH       0.156500
     49 H8         -27.8800   -10.8470   -15.7980 hc         1 XOH       0.056200
     50 H9         -28.7350    -9.3820   -15.3040 hc         1 XOH       0.056200
     51 H10        -29.6820   -10.6440   -13.3350 h1         1 XOH       0.031700
     52 H11        -28.6810   -12.0320   -13.7680 h1         1 XOH       0.031700
     53 H13        -27.7630   -11.7450   -11.3690 h1         1 XOH       0.039950
     54 H14        -26.6510    -8.9350   -10.7520 h1         1 XOH       0.051950
     55 H15        -26.6940   -10.3330    -9.6490 h1         1 XOH       0.051950
     56 H16        -24.1430   -10.5020   -12.9310 h1         1 XOH       0.051950
     57 H17        -25.1260    -9.0360   -12.7080 h1         1 XOH       0.051950
     58 H18        -26.1400   -11.8470   -13.4700 h1         1 XOH       0.039950
     59 H19        -26.0920   -10.4220   -14.5170 h1         1 XOH       0.039950
     60 H20        -30.0350    -9.2850   -21.8410 ha         1 XOH       0.156500
     61 H22        -30.9230   -10.5960   -15.5080 h1         1 XOH       0.060200
     62 H23        -30.0560   -12.0750   -15.9690 h1         1 XOH       0.060200
     63 H24        -29.7520   -11.2300   -18.1160 hn         1 XOH       0.307500
     64 H25        -29.9750   -10.0150   -19.6980 hn         1 XOH       0.150000
     65 H26        -29.5120    -4.5230   -23.3650 hn         1 XOH       0.330500
     66 H27        -26.9560    -7.9900   -22.4090 hc         1 XOH       0.066700
     67 H28        -27.5840    -6.7840   -23.5430 hc         1 XOH       0.066700
     68 H29        -25.8880    -6.7160   -23.0260 hc         1 XOH       0.066700
     69 H12        -28.7130   -10.2680   -11.1600 h1         1 XOH       0.039950
@<TRIPOS>BOND
     1     1     4 1   
     2     1    35 2   
     3     1    36 1   
     4     2     3 1   
     5     2    36 1   
     6     2    42 1   
     7     2    43 1   
     8     3    37 2   
     9     3    40 1   
    10     4     5 2   
    11     4    32 1   
    12     5     6 1   
    13     5    44 1   
    14     6    34 1   
    15     6    45 1   
    16     7     8 ar  
    17     7    33 ar  
    18     7    46 1   
    19     8     9 ar  
    20     8    47 1   
    21     9    31 1   
    22     9    32 ar  
    23    10    11 ar  
    24    10    29 1   
    25    10    30 ar  
    26    11    12 ar  
    27    11    48 1   
    28    12    19 ar  
    29    12    27 1   
    30    13    14 1   
    31    13    23 1   
    32    13    49 1   
    33    13    50 1   
    34    14    22 1   
    35    14    51 1   
    36    14    52 1   
    37    15    16 1   
    38    15    22 1   
    39    15    53 1   
    40    15    69 1   
    41    16    21 1   
    42    16    54 1   
    43    16    55 1   
    44    17    18 1   
    45    17    21 1   
    46    17    56 1   
    47    17    57 1   
    48    18    22 1   
    49    18    58 1   
    50    18    59 1   
    51    19    20 ar  
    52    19    60 1   
    53    20    28 1   
    54    20    30 ar  
    55    23    24 1   
    56    23    61 1   
    57    23    62 1   
    58    24    25 1   
    59    24    63 1   
    60    25    26 2   
    61    25    27 1   
    62    27    64 1   
    63    30    31 1   
    64    32    34 ar  
    65    33    34 ar  
    66    36    65 1   
    67    37    38 1   
    68    38    39 1   
    69    39    40 2   
    70    40    41 1   
    71    41    66 1   
    72    41    67 1   
    73    41    68 1   
@<TRIPOS>SUBSTRUCTURE
     1 XOH         1 TEMP              0 ****  ****    0 ROOT
