@<TRIPOS>MOLECULE
XOI
   74    79     1     0     0
SMALL
abcg2


@<TRIPOS>ATOM
      1 N1           2.8990    30.2760   -12.2830 n          1 XOI      -0.406800
      2 C7           8.2620    24.7640   -13.0580 cp         1 XOI      -0.079500
      3 C8           7.0740    24.1000   -12.9180 ca         1 XOI      -0.099000
      4 N2           4.3000    28.1090   -13.4980 nh         1 XOI      -0.769300
      5 C9           5.8470    24.7880   -12.9570 ca         1 XOI       0.105000
      6 C1          11.3500    22.8250   -11.9900 ca         1 XOI       0.058700
      7 C5          10.1850    23.6210   -11.8650 ca         1 XOI      -0.302300
      8 C6           9.6670    23.9840   -10.5100 c3         1 XOI       0.373300
      9 N3           3.4600    26.0300   -13.1480 nb         1 XOI      -0.371000
     10 C4           9.5440    24.0060   -13.0380 cp         1 XOI       0.509500
     11 C3          11.0980    22.9960   -14.3800 ca         1 XOI       0.652900
     12 C2          11.7930    22.5220   -13.2550 ca         1 XOI      -0.254000
     13 N4           4.7190    24.0540   -12.8610 nb         1 XOI      -0.225000
     14 N            9.9850    23.7160   -14.2530 nb         1 XOI      -0.747000
     15 O            7.1590    28.1940   -13.4000 os         1 XOI      -0.321100
     16 C10          5.8400    26.1980   -13.1180 ca         1 XOI      -0.228000
     17 C11          7.0780    26.8630   -13.2640 ca         1 XOI       0.175100
     18 C12          8.2580    26.1520   -13.2470 ca         1 XOI       0.083000
     19 C13          6.4080    28.9260   -12.4490 c3         1 XOI       0.150600
     20 C14          5.0360    29.2550   -12.9750 c6         1 XOI       0.182500
     21 C15          4.2260    29.9050   -11.8450 c6         1 XOI       0.061000
     22 C16          2.1650    29.1510   -12.8340 c6         1 XOI       0.076000
     23 C17          2.9790    28.5200   -13.9560 c6         1 XOI       0.190800
     24 C18          4.5290    26.8010   -13.2230 ca         1 XOI       0.452900
     25 C19          3.6040    24.7200   -12.9690 ca         1 XOI       0.410300
     26 C20          1.2280    24.5940   -12.9560 c3         1 XOI       0.189600
     27 C21          0.1680    23.5160   -12.8610 c5         1 XOI       0.187500
     28 C22          0.2160    22.6810   -11.5850 c5         1 XOI      -0.112400
     29 C23         -0.6060    21.4680   -11.9550 c5         1 XOI       0.171300
     30 C24         -0.2840    21.2520   -13.4250 c5         1 XOI       0.148800
     31 C26          2.5700    31.5860   -12.4250 c          1 XOI       0.607300
     32 C27          1.1670    31.8970   -12.8170 ce         1 XOI      -0.297200
     33 C28          0.8500    33.0770   -13.3380 c2         1 XOI      -0.233000
     34 F            8.7480    24.9530   -10.5240 f          1 XOI      -0.116333
     35 F1           9.0990    22.9350    -9.8870 f          1 XOI      -0.116333
     36 F2          10.6400    24.4230    -9.6950 f          1 XOI      -0.116333
     37 F3          -1.9680    21.7790   -11.8180 f          1 XOI      -0.277000
     38 N5           0.2710    22.5140   -13.9090 n3         1 XOI      -0.734600
     39 N6          11.5090    22.7070   -15.6290 nv         1 XOI      -1.070900
     40 O2           3.3700    32.4850   -12.2030 o          1 XOI      -0.598100
     41 CL           9.7530    27.0020   -13.3950 cl         1 XOI      -0.171000
     42 H7           7.0560    23.0270   -12.7770 ha         1 XOI       0.149000
     43 H6          12.6790    21.9130   -13.3880 ha         1 XOI       0.124000
     44 H8           6.3580    28.3830   -11.5000 h1         1 XOI       0.071200
     45 H9           6.9400    29.8600   -12.2660 h1         1 XOI       0.071200
     46 H            5.1370    29.9750   -13.7930 h1         1 XOI       0.087700
     47 H11          4.1360    29.1890   -11.0210 h1         1 XOI       0.073200
     48 H10          4.7500    30.7820   -11.4750 h1         1 XOI       0.073200
     49 H13          1.2020    29.4580   -13.2300 h1         1 XOI       0.064700
     50 H12          1.9860    28.4140   -12.0470 h1         1 XOI       0.064700
     51 H14          2.4470    27.6720   -14.3750 h1         1 XOI       0.073200
     52 H15          3.1260    29.2590   -14.7490 h1         1 XOI       0.073200
     53 H16          1.1310    25.1520   -13.8910 h1         1 XOI       0.045200
     54 H17          1.0900    25.3070   -12.1390 h1         1 XOI       0.045200
     55 H1          -0.7950    24.0560   -12.8980 h1         1 XOI       0.041700
     56 H19          1.2380    22.3610   -11.3720 hc         1 XOI       0.075700
     57 H18         -0.1630    23.2040   -10.7070 hc         1 XOI       0.075700
     58 H2          -0.4160    20.5920   -11.3340 h1         1 XOI       0.069700
     59 H21         -1.1920    20.9570   -13.9640 h1         1 XOI       0.056700
     60 H20          0.4350    20.4360   -13.5450 h1         1 XOI       0.056700
     61 H23         -0.0070    22.1410   -15.9420 h1         1 XOI       0.030367
     62 H24         -1.2880    23.1320   -15.2260 h1         1 XOI       0.030367
     63 H22          0.3140    23.8170   -15.5440 h1         1 XOI       0.030367
     64 H25          0.3880    31.1660   -12.6470 ha         1 XOI       0.182000
     65 H26         -0.1730    33.3120   -13.6010 ha         1 XOI       0.176500
     66 H27          1.5910    33.8430   -13.5260 ha         1 XOI       0.176500
     67 H29         11.0800    23.1840   -16.4040 hn         1 XOI       0.494000
     68 H28         12.4240    22.3210   -15.7840 hn         1 XOI       0.494000
     69 O1           2.5080    23.9790   -12.8770 os         1 XOI      -0.423300
     70 C           12.1360    22.2980   -10.8230 c3         1 XOI      -0.065800
     71 C25         -0.2080    22.9210   -15.2060 c3         1 XOI       0.168100
     72 H4          12.7290    23.0860   -10.3590 hc         1 XOI       0.058033
     73 H5          11.5050    21.8620   -10.0510 hc         1 XOI       0.058033
     74 H3          12.8250    21.5270   -11.1600 hc         1 XOI       0.058033
@<TRIPOS>BOND
     1     1    21 1   
     2     1    22 1   
     3     1    31 1   
     4     2     3 ar  
     5     2    10 1   
     6     2    18 ar  
     7     3     5 ar  
     8     3    42 1   
     9     4    20 1   
    10     4    23 1   
    11     4    24 1   
    12     5    13 ar  
    13     5    16 ar  
    14     6     7 ar  
    15     6    12 ar  
    16     6    70 1   
    17     7     8 1   
    18     7    10 ar  
    19     8    34 1   
    20     8    35 1   
    21     8    36 1   
    22     9    24 ar  
    23     9    25 ar  
    24    10    14 ar  
    25    11    12 ar  
    26    11    14 ar  
    27    11    39 1   
    28    12    43 1   
    29    13    25 ar  
    30    15    17 1   
    31    15    19 1   
    32    16    17 ar  
    33    16    24 ar  
    34    17    18 ar  
    35    18    41 1   
    36    19    20 1   
    37    19    44 1   
    38    19    45 1   
    39    20    21 1   
    40    20    46 1   
    41    21    47 1   
    42    21    48 1   
    43    22    23 1   
    44    22    49 1   
    45    22    50 1   
    46    23    51 1   
    47    23    52 1   
    48    25    69 1   
    49    26    27 1   
    50    26    53 1   
    51    26    54 1   
    52    26    69 1   
    53    27    28 1   
    54    27    38 1   
    55    27    55 1   
    56    28    29 1   
    57    28    56 1   
    58    28    57 1   
    59    29    30 1   
    60    29    37 1   
    61    29    58 1   
    62    30    38 1   
    63    30    59 1   
    64    30    60 1   
    65    31    32 1   
    66    31    40 2   
    67    32    33 2   
    68    32    64 1   
    69    33    65 1   
    70    33    66 1   
    71    38    71 1   
    72    39    67 1   
    73    39    68 1   
    74    61    71 1   
    75    62    71 1   
    76    63    71 1   
    77    70    72 1   
    78    70    73 1   
    79    70    74 1   
@<TRIPOS>SUBSTRUCTURE
     1 XOI         1 TEMP              0 ****  ****    0 ROOT
