@<TRIPOS>MOLECULE
XOI
   74    79     1     0     0
SMALL
No Charge or Current Charge


@<TRIPOS>ATOM
      1 N1           2.8550    30.2790   -12.8170 n          1 XOI      -0.406800
      2 C7           8.5080    24.7760   -13.1280 cp         1 XOI      -0.079500
      3 C8           7.2560    24.1420   -12.9680 ca         1 XOI      -0.099000
      4 N2           4.6380    28.2130   -13.9170 nh         1 XOI      -0.769300
      5 C9           6.0500    24.8550   -13.0480 ca         1 XOI       0.105000
      6 C1          11.4190    22.5920   -11.8980 ca         1 XOI       0.058700
      7 C5          10.3020    23.4690   -11.8150 ca         1 XOI      -0.302300
      8 C6           9.6630    23.8130   -10.4520 c3         1 XOI       0.373300
      9 N3           3.6680    26.1940   -13.3280 nb         1 XOI      -0.371000
     10 C4           9.7670    23.9820   -13.0380 cp         1 XOI       0.509500
     11 C3          11.3600    22.9150   -14.2740 ca         1 XOI       0.652900
     12 C2          11.9520    22.3300   -13.1670 ca         1 XOI      -0.254000
     13 N4           4.8870    24.1940   -12.9100 nb         1 XOI      -0.225000
     14 N           10.3130    23.7060   -14.2390 nb         1 XOI      -0.747000
     15 O            7.4310    28.2830   -13.4160 os         1 XOI      -0.321100
     16 C10          6.0720    26.2510   -13.2890 ca         1 XOI      -0.228000
     17 C11          7.3250    26.9120   -13.3850 ca         1 XOI       0.175100
     18 C12          8.5280    26.1750   -13.3300 ca         1 XOI       0.083000
     19 C13          6.5980    29.0740   -12.5560 c3         1 XOI       0.150600
     20 C14          5.2600    29.3910   -13.2660 c6         1 XOI       0.182500
     21 C15          4.2500    30.0710   -12.2960 c6         1 XOI       0.061000
     22 C16          2.3670    29.2860   -13.8340 c6         1 XOI       0.076000
     23 C17          3.4580    28.6260   -14.7220 c6         1 XOI       0.190800
     24 C18          4.8130    26.8830   -13.4610 ca         1 XOI       0.452900
     25 C19          3.7430    24.8850   -13.0370 ca         1 XOI       0.410300
     26 C20          1.2830    24.8060   -12.9840 c3         1 XOI       0.189600
     27 C21          0.1500    23.7530   -12.7680 c5         1 XOI       0.187500
     28 C22          0.2130    23.0200   -11.4020 c5         1 XOI      -0.112400
     29 C23         -0.8490    21.8960   -11.5740 c5         1 XOI       0.171300
     30 C24         -0.9600    21.7240   -13.1260 c5         1 XOI       0.148800
     31 C26          1.9690    31.1190   -12.1010 c          1 XOI       0.607300
     32 C27          0.5150    31.1490   -12.4760 ce         1 XOI      -0.297200
     33 C28         -0.3110    32.1930   -12.2140 c2         1 XOI      -0.233000
     34 F            8.9430    24.9560   -10.4550 f          1 XOI      -0.116333
     35 F1           8.8290    22.8300   -10.0460 f          1 XOI      -0.116333
     36 F2          10.5780    23.9850    -9.4720 f          1 XOI      -0.116333
     37 F3          -2.0750    22.3010   -11.0330 f          1 XOI      -0.277000
     38 N5           0.1400    22.5680   -13.6680 n3         1 XOI      -0.734600
     39 N6          11.7890    22.7400   -15.5210 nv         1 XOI      -1.070900
     40 O2           2.3930    31.8660   -11.2300 o          1 XOI      -0.598100
     41 Cl          10.0750    27.0300   -13.4240 cl         1 XOI      -0.171000
     42 H7           7.2260    23.0690   -12.7920 ha         1 XOI       0.149000
     43 H6          12.8070    21.6740   -13.2910 ha         1 XOI       0.124000
     44 H8           6.4060    28.5500   -11.6100 h1         1 XOI       0.071200
     45 H9           7.0920    30.0250   -12.3170 h1         1 XOI       0.071200
     46 H            5.5070    30.1260   -14.0480 h1         1 XOI       0.087700
     47 H11          4.1750    29.4550   -11.3880 h1         1 XOI       0.073200
     48 H10          4.6710    31.0380   -11.9880 h1         1 XOI       0.073200
     49 H13          1.6510    29.7720   -14.5100 h1         1 XOI       0.064700
     50 H12          1.8290    28.4890   -13.3020 h1         1 XOI       0.064700
     51 H14          3.0250    27.7790   -15.2750 h1         1 XOI       0.073200
     52 H15          3.7730    29.3520   -15.4860 h1         1 XOI       0.073200
     53 H16          1.1560    25.2680   -13.9710 h1         1 XOI       0.045200
     54 H17          1.1790    25.5940   -12.2260 h1         1 XOI       0.045200
     55 H1          -0.8020    24.2980   -12.8530 h1         1 XOI       0.041700
     56 H19          1.2050    22.5870   -11.2270 hc         1 XOI       0.075700
     57 H18         -0.0060    23.6820   -10.5580 hc         1 XOI       0.075700
     58 H2          -0.5440    20.9680   -11.0740 h1         1 XOI       0.069700
     59 H21         -1.9420    22.0710   -13.4800 h1         1 XOI       0.056700
     60 H20         -0.8520    20.6720   -13.4250 h1         1 XOI       0.056700
     61 H23          0.0330    21.9000   -15.6860 h1         1 XOI       0.030367
     62 H24         -0.8460    23.4130   -15.3600 h1         1 XOI       0.030367
     63 H22          0.9320    23.4130   -15.4580 h1         1 XOI       0.030367
     64 H25          0.1320    30.3080   -13.0480 ha         1 XOI       0.182000
     65 H26         -1.3550    32.1930   -12.5330 ha         1 XOI       0.176500
     66 H27          0.0290    33.0790   -11.6740 ha         1 XOI       0.176500
     67 H29         11.4140    23.4100   -16.1800 hn         1 XOI       0.494000
     68 H28         12.7640    22.4900   -15.6440 hn         1 XOI       0.494000
     69 O1           2.5780    24.1690   -12.8790 os         1 XOI      -0.423300
     70 C           12.0500    21.8930   -10.6960 c3         1 XOI      -0.065800
     71 C25          0.0590    22.8400   -15.1190 c3         1 XOI       0.168100
     72 H4          12.6780    22.5840   -10.1220 hc         1 XOI       0.058033
     73 H5          11.2900    21.4780   -10.0250 hc         1 XOI       0.058033
     74 H3          12.6880    21.0570   -11.0050 hc         1 XOI       0.058033
@<TRIPOS>BOND
     1     1    21 1   
     2     1    22 1   
     3     1    31 1   
     4     2     3 ar  
     5     2    10 1   
     6     2    18 ar  
     7     3     5 ar  
     8     3    42 1   
     9     4    20 1   
    10     4    23 1   
    11     4    24 1   
    12     5    13 ar  
    13     5    16 ar  
    14     6     7 ar  
    15     6    12 ar  
    16     6    70 1   
    17     7     8 1   
    18     7    10 ar  
    19     8    34 1   
    20     8    35 1   
    21     8    36 1   
    22     9    24 ar  
    23     9    25 ar  
    24    10    14 ar  
    25    11    12 ar  
    26    11    14 ar  
    27    11    39 1   
    28    12    43 1   
    29    13    25 ar  
    30    15    17 1   
    31    15    19 1   
    32    16    17 ar  
    33    16    24 ar  
    34    17    18 ar  
    35    18    41 1   
    36    19    20 1   
    37    19    44 1   
    38    19    45 1   
    39    20    21 1   
    40    20    46 1   
    41    21    47 1   
    42    21    48 1   
    43    22    23 1   
    44    22    49 1   
    45    22    50 1   
    46    23    51 1   
    47    23    52 1   
    48    25    69 1   
    49    26    27 1   
    50    26    53 1   
    51    26    54 1   
    52    26    69 1   
    53    27    28 1   
    54    27    38 1   
    55    27    55 1   
    56    28    29 1   
    57    28    56 1   
    58    28    57 1   
    59    29    30 1   
    60    29    37 1   
    61    29    58 1   
    62    30    38 1   
    63    30    59 1   
    64    30    60 1   
    65    31    32 1   
    66    31    40 2   
    67    32    33 2   
    68    32    64 1   
    69    33    65 1   
    70    33    66 1   
    71    38    71 1   
    72    39    67 1   
    73    39    68 1   
    74    61    71 1   
    75    62    71 1   
    76    63    71 1   
    77    70    72 1   
    78    70    73 1   
    79    70    74 1   
@<TRIPOS>SUBSTRUCTURE
     1 XOI         1 TEMP              0 ****  ****    0 ROOT
