@<TRIPOS>MOLECULE
XOJ
   76    78     1     0     0
SMALL
No Charge or Current Charge


@<TRIPOS>ATOM
      1 C           10.8190     1.6050     0.2870 c3         1 XOJ      -0.089100
      2 N            9.3850    -0.4810    -0.1420 n3         1 XOJ      -0.731600
      3 O           -1.6700     3.1860     0.7640 o          1 XOJ      -0.567100
      4 C1           9.6230     0.7240     0.7070 c3         1 XOJ       0.171300
      5 N1           4.3480    -0.3420    -0.0320 nu         1 XOJ      -0.918100
      6 O1          -6.4810    -0.1040     1.5660 os         1 XOJ      -0.339600
      7 C2          10.5540    -1.4090    -0.1580 c3         1 XOJ       0.171300
      8 N2           2.7760    -2.0470     0.2620 nb         1 XOJ      -0.245000
      9 O2          -5.5310    -3.8720    -1.4030 os         1 XOJ      -0.339600
     10 C3          10.4680    -2.5640    -1.1790 c3         1 XOJ      -0.089100
     11 N3          -0.1550     0.8160    -0.3310 nb         1 XOJ      -0.176000
     12 C4           8.1060    -1.1760     0.1880 c3         1 XOJ       0.175800
     13 N4           2.1170     0.2230    -0.1770 nb         1 XOJ      -0.248000
     14 C5           6.8240    -0.3300     0.0100 c3         1 XOJ      -0.101400
     15 N5          -2.3760     1.4620    -0.5620 ns         1 XOJ      -0.348900
     16 C6           5.5470    -1.1790     0.1390 c3         1 XOJ       0.241800
     17 N6          -3.5430     3.4100    -0.5520 ns         1 XOJ      -0.531900
     18 C7           3.0230    -0.7480     0.0220 ca         1 XOJ       0.405900
     19 C8           1.4820    -2.4010     0.3060 ca         1 XOJ       0.195900
     20 C9           0.4570    -1.4590     0.1100 ca         1 XOJ      -0.299000
     21 C10         -0.8920    -1.8490     0.1580 ca         1 XOJ       0.027000
     22 C11         -1.8970    -0.8780    -0.0340 cp         1 XOJ      -0.177000
     23 C12         -1.4490     0.4460    -0.2690 ca         1 XOJ       0.310900
     24 C13          0.8090    -0.1070    -0.1370 ca         1 XOJ       0.180000
     25 C14         -2.4570     2.7300    -0.0500 c          1 XOJ       0.667100
     26 C15         -3.9730     4.7710    -0.2140 c3         1 XOJ       0.154400
     27 C16         -2.8760     5.7980    -0.5920 c3         1 XOJ      -0.105767
     28 C17         -5.2450     5.0620    -1.0420 c3         1 XOJ      -0.105767
     29 C18         -4.3170     4.8720     1.2940 c3         1 XOJ      -0.105767
     30 C19         -3.3420    -1.2580     0.0060 cp         1 XOJ       0.033000
     31 C20         -3.8090    -2.3860    -0.7030 ca         1 XOJ      -0.183500
     32 C21         -5.1600    -2.7600    -0.6750 ca         1 XOJ       0.179100
     33 C22         -6.0800    -2.0040     0.0790 ca         1 XOJ      -0.288000
     34 C23         -5.6340    -0.8810     0.8040 ca         1 XOJ       0.179100
     35 C24         -4.2790    -0.5210     0.7660 ca         1 XOJ      -0.183500
     36 C25         -7.8890    -0.3760     1.6730 c3         1 XOJ       0.149400
     37 C26         -6.8890    -4.3450    -1.4460 c3         1 XOJ       0.149400
     38 H           10.7660     1.8460    -0.7810 hc         1 XOJ       0.036867
     39 HA          10.8050     2.5460     0.8490 hc         1 XOJ       0.036867
     40 HB          11.7750     1.1120     0.4930 hc         1 XOJ       0.036867
     41 H1           9.7600     0.4240     1.7560 h1         1 XOJ       0.028450
     42 H1A          8.7450     1.3800     0.6760 h1         1 XOJ       0.028450
     43 H2          11.4660    -0.8550    -0.4120 h1         1 XOJ       0.028450
     44 H2A         10.7100    -1.8360     0.8420 h1         1 XOJ       0.028450
     45 H3           9.7190    -3.3080    -0.8850 hc         1 XOJ       0.036867
     46 H3A         10.2170    -2.1830    -2.1760 hc         1 XOJ       0.036867
     47 H3B         11.4340    -3.0770    -1.2440 hc         1 XOJ       0.036867
     48 H4           7.9840    -2.0500    -0.4630 h1         1 XOJ       0.032200
     49 H4A          8.1390    -1.5510     1.2210 h1         1 XOJ       0.032200
     50 H5           6.7910     0.4630     0.7660 hc         1 XOJ       0.055200
     51 H5A          6.8440     0.1480    -0.9770 hc         1 XOJ       0.055200
     52 H6           5.5310    -1.6600     1.1270 h1         1 XOJ       0.049700
     53 H6A          5.5610    -1.9720    -0.6220 h1         1 XOJ       0.049700
     54 HN1          4.4870     0.6520    -0.2220 hn         1 XOJ       0.513000
     55 H8           1.2670    -3.4510     0.4990 h4         1 XOJ       0.018100
     56 H10         -1.1620    -2.8860     0.3490 ha         1 XOJ       0.122000
     57 HN5         -3.1280     1.1830    -1.1760 hn         1 XOJ       0.158000
     58 HN6         -4.1070     2.9000    -1.2190 hn         1 XOJ       0.306500
     59 H16         -2.5960     5.6970    -1.6470 hc         1 XOJ       0.045256
     60 H16A        -3.2330     6.8220    -0.4320 hc         1 XOJ       0.045256
     61 H16B        -1.9730     5.6660     0.0140 hc         1 XOJ       0.045256
     62 H17         -6.0420     4.3470    -0.8020 hc         1 XOJ       0.045256
     63 H17A        -5.6250     6.0710    -0.8370 hc         1 XOJ       0.045256
     64 H17B        -5.0380     4.9920    -2.1170 hc         1 XOJ       0.045256
     65 H18         -3.4300     4.7290     1.9210 hc         1 XOJ       0.045256
     66 H18A        -4.7330     5.8580     1.5310 hc         1 XOJ       0.045256
     67 H18B        -5.0580     4.1140     1.5750 hc         1 XOJ       0.045256
     68 H20         -3.1130    -2.9750    -1.2940 ha         1 XOJ       0.138000
     69 H22         -7.1260    -2.2880     0.1040 ha         1 XOJ       0.122000
     70 H24         -3.9510     0.3360     1.3450 ha         1 XOJ       0.138000
     71 H25         -8.3710     0.3630     2.3250 h1         1 XOJ       0.042033
     72 H25A        -8.3720    -0.3270     0.6890 h1         1 XOJ       0.042033
     73 H25B        -8.0620    -1.3720     2.1020 h1         1 XOJ       0.042033
     74 H26         -6.9600    -5.2370    -2.0810 h1         1 XOJ       0.042033
     75 H26A        -7.2420    -4.6130    -0.4420 h1         1 XOJ       0.042033
     76 H26B        -7.5560    -3.5790    -1.8620 h1         1 XOJ       0.042033
@<TRIPOS>BOND
     1     1     4 1   
     2     1    38 1   
     3     1    39 1   
     4     1    40 1   
     5     2     4 1   
     6     2     7 1   
     7     2    12 1   
     8     3    25 2   
     9     4    41 1   
    10     4    42 1   
    11     5    16 1   
    12     5    18 1   
    13     5    54 1   
    14     6    34 1   
    15     6    36 1   
    16     7    10 1   
    17     7    43 1   
    18     7    44 1   
    19     8    18 ar  
    20     8    19 ar  
    21     9    32 1   
    22     9    37 1   
    23    10    45 1   
    24    10    46 1   
    25    10    47 1   
    26    11    23 ar  
    27    11    24 ar  
    28    12    14 1   
    29    12    48 1   
    30    12    49 1   
    31    13    18 ar  
    32    13    24 ar  
    33    14    16 1   
    34    14    50 1   
    35    14    51 1   
    36    15    23 1   
    37    15    25 1   
    38    15    57 1   
    39    16    52 1   
    40    16    53 1   
    41    17    25 1   
    42    17    26 1   
    43    17    58 1   
    44    19    20 ar  
    45    19    55 1   
    46    20    21 ar  
    47    20    24 ar  
    48    21    22 ar  
    49    21    56 1   
    50    22    23 ar  
    51    22    30 1   
    52    26    27 1   
    53    26    28 1   
    54    26    29 1   
    55    27    59 1   
    56    27    60 1   
    57    27    61 1   
    58    28    62 1   
    59    28    63 1   
    60    28    64 1   
    61    29    65 1   
    62    29    66 1   
    63    29    67 1   
    64    30    31 ar  
    65    30    35 ar  
    66    31    32 ar  
    67    31    68 1   
    68    32    33 ar  
    69    33    34 ar  
    70    33    69 1   
    71    34    35 ar  
    72    35    70 1   
    73    36    71 1   
    74    36    72 1   
    75    36    73 1   
    76    37    74 1   
    77    37    75 1   
    78    37    76 1   
@<TRIPOS>SUBSTRUCTURE
     1 XOJ         1 TEMP              0 ****  ****    0 ROOT
