@<TRIPOS>MOLECULE
XOJ
   76    78     1     0     0
SMALL
bcc


@<TRIPOS>ATOM
      1 C           10.4400     1.3000     1.2010 c3         1 XOJ      -0.089100
      2 N            9.1330    -0.4920     0.0910 n3         1 XOJ      -0.731600
      3 O           -1.3580     3.3180     0.2140 o          1 XOJ      -0.567100
      4 C1           9.5000     0.1160     1.3630 c3         1 XOJ       0.171300
      5 N1           4.2270    -0.2470     0.1110 nu         1 XOJ      -0.862900
      6 O1          -6.2270    -0.6400     2.2070 os         1 XOJ      -0.316400
      7 C2          10.1990    -1.3240    -0.4500 c3         1 XOJ       0.171300
      8 N2           2.7510    -1.9900     0.3000 nb         1 XOJ      -0.771000
      9 O2          -5.5710    -3.5270    -1.5940 os         1 XOJ      -0.316400
     10 C3          10.1530    -1.4180    -1.9660 c3         1 XOJ      -0.089100
     11 N3          -0.2190     0.7840    -0.1290 nb         1 XOJ      -0.702000
     12 C4           7.8800    -1.2220     0.1800 c3         1 XOJ       0.175800
     13 N4           2.0100     0.2680    -0.0020 nb         1 XOJ      -0.774000
     14 C5           6.6600    -0.3150     0.1100 c3         1 XOJ      -0.101400
     15 N5          -2.4550     1.3570    -0.2800 ns         1 XOJ      -0.582400
     16 C6           5.3750    -1.1180     0.2330 c3         1 XOJ       0.241800
     17 N6          -3.4480     3.3620    -0.6830 ns         1 XOJ      -0.598900
     18 C7           2.9520    -0.6550     0.1360 ca         1 XOJ       0.931900
     19 C8           1.5100    -2.3900     0.3250 ca         1 XOJ       0.524200
     20 C9           0.4230    -1.5130     0.1920 ca         1 XOJ      -0.429600
     21 C10         -0.9300    -1.8890     0.2270 ca         1 XOJ       0.009000
     22 C11         -1.9070    -0.9430     0.1090 cp         1 XOJ      -0.242300
     23 C12         -1.4750     0.4170    -0.0840 ca         1 XOJ       0.639200
     24 C13          0.7390    -0.1460     0.0250 ca         1 XOJ       0.771300
     25 C14         -2.3370     2.7490    -0.2270 c          1 XOJ       0.801100
     26 C15         -3.6730     4.8120    -0.7140 c3         1 XOJ       0.154400
     27 C16         -2.6990     5.4990    -1.6730 c3         1 XOJ      -0.105767
     28 C17         -5.1010     5.0020    -1.2230 c3         1 XOJ      -0.105767
     29 C18         -3.5620     5.4170     0.6860 c3         1 XOJ      -0.105767
     30 C19         -3.3360    -1.3230     0.1690 cp         1 XOJ       0.033000
     31 C20         -3.8340    -2.2410    -0.7470 ca         1 XOJ      -0.201500
     32 C21         -5.1690    -2.6350    -0.6730 ca         1 XOJ       0.179100
     33 C22         -6.0090    -2.1100     0.3070 ca         1 XOJ      -0.306000
     34 C23         -5.4970    -1.1890     1.2210 ca         1 XOJ       0.179100
     35 C24         -4.1630    -0.7930     1.1550 ca         1 XOJ      -0.201500
     36 C25         -7.5840    -1.0140     2.3470 c3         1 XOJ       0.126200
     37 C26         -6.9100    -3.9820    -1.5750 c3         1 XOJ       0.126200
     38 H            9.9790     2.0760     0.5910 hc         1 XOJ       0.036867
     39 HA          10.6770     1.7300     2.1750 hc         1 XOJ       0.036867
     40 HB          11.3830     1.0200     0.7310 hc         1 XOJ       0.036867
     41 H1           9.9410    -0.6250     2.0500 h1         1 XOJ       0.028450
     42 H1A          8.5900     0.4710     1.8510 h1         1 XOJ       0.028450
     43 H2          11.1600    -0.8950    -0.1620 h1         1 XOJ       0.028450
     44 H2A         10.1800    -2.3340    -0.0100 h1         1 XOJ       0.028450
     45 H3           9.2030    -1.8160    -2.3260 hc         1 XOJ       0.036867
     46 H3A         10.2960    -0.4360    -2.4170 hc         1 XOJ       0.036867
     47 H3B         10.9410    -2.0770    -2.3320 hc         1 XOJ       0.036867
     48 H4           7.8240    -1.9250    -0.6550 h1         1 XOJ       0.032200
     49 H4A          7.8380    -1.8380     1.0950 h1         1 XOJ       0.032200
     50 H5           6.6930     0.4380     0.9030 hc         1 XOJ       0.055200
     51 H5A          6.6730     0.2230    -0.8430 hc         1 XOJ       0.055200
     52 H6           5.3560    -1.6400     1.1950 h1         1 XOJ       0.049700
     53 H6A          5.3450    -1.8900    -0.5420 h1         1 XOJ       0.049700
     54 HN1          4.3780     0.7410    -0.0080 hn         1 XOJ       0.457800
     55 H8           1.3330    -3.4540     0.4570 h4         1 XOJ       0.018100
     56 H10         -1.1950    -2.9300     0.3720 ha         1 XOJ       0.140000
     57 HN5         -3.3870     0.9890    -0.4000 hn         1 XOJ       0.324500
     58 HN6         -4.1490     2.8000    -1.1410 hn         1 XOJ       0.306500
     59 H16         -2.7860     5.0850    -2.6790 hc         1 XOJ       0.045256
     60 H16A        -2.9220     6.5650    -1.7300 hc         1 XOJ       0.045256
     61 H16B        -1.6660     5.3890    -1.3460 hc         1 XOJ       0.045256
     62 H17         -5.8240     4.5140    -0.5680 hc         1 XOJ       0.045256
     63 H17A        -5.3440     6.0640    -1.2620 hc         1 XOJ       0.045256
     64 H17B        -5.2250     4.5980    -2.2300 hc         1 XOJ       0.045256
     65 H18         -2.5500     5.3500     1.0800 hc         1 XOJ       0.045256
     66 H18A        -3.8390     6.4720     0.6490 hc         1 XOJ       0.045256
     67 H18B        -4.2380     4.9170     1.3810 hc         1 XOJ       0.045256
     68 H20         -3.1970    -2.6470    -1.5230 ha         1 XOJ       0.156000
     69 H22         -7.0440    -2.4140     0.3610 ha         1 XOJ       0.140000
     70 H24         -3.7760    -0.0980     1.8900 ha         1 XOJ       0.156000
     71 H25         -7.9660    -0.4630     3.2020 h1         1 XOJ       0.042033
     72 H25A        -8.1750    -0.7490     1.4670 h1         1 XOJ       0.042033
     73 H25B        -7.6950    -2.0840     2.5390 h1         1 XOJ       0.042033
     74 H26         -7.0020    -4.7000    -2.3860 h1         1 XOJ       0.042033
     75 H26A        -7.1590    -4.4810    -0.6350 h1         1 XOJ       0.042033
     76 H26B        -7.6210    -3.1690    -1.7440 h1         1 XOJ       0.042033
@<TRIPOS>BOND
     1     1     4 1   
     2     1    38 1   
     3     1    39 1   
     4     1    40 1   
     5     2     4 1   
     6     2     7 1   
     7     2    12 1   
     8     3    25 2   
     9     4    41 1   
    10     4    42 1   
    11     5    16 1   
    12     5    18 1   
    13     5    54 1   
    14     6    34 1   
    15     6    36 1   
    16     7    10 1   
    17     7    43 1   
    18     7    44 1   
    19     8    18 ar  
    20     8    19 ar  
    21     9    32 1   
    22     9    37 1   
    23    10    45 1   
    24    10    46 1   
    25    10    47 1   
    26    11    23 ar  
    27    11    24 ar  
    28    12    14 1   
    29    12    48 1   
    30    12    49 1   
    31    13    18 ar  
    32    13    24 ar  
    33    14    16 1   
    34    14    50 1   
    35    14    51 1   
    36    15    23 1   
    37    15    25 1   
    38    15    57 1   
    39    16    52 1   
    40    16    53 1   
    41    17    25 1   
    42    17    26 1   
    43    17    58 1   
    44    19    20 ar  
    45    19    55 1   
    46    20    21 ar  
    47    20    24 ar  
    48    21    22 ar  
    49    21    56 1   
    50    22    23 ar  
    51    22    30 1   
    52    26    27 1   
    53    26    28 1   
    54    26    29 1   
    55    27    59 1   
    56    27    60 1   
    57    27    61 1   
    58    28    62 1   
    59    28    63 1   
    60    28    64 1   
    61    29    65 1   
    62    29    66 1   
    63    29    67 1   
    64    30    31 ar  
    65    30    35 ar  
    66    31    32 ar  
    67    31    68 1   
    68    32    33 ar  
    69    33    34 ar  
    70    33    69 1   
    71    34    35 ar  
    72    35    70 1   
    73    36    71 1   
    74    36    72 1   
    75    36    73 1   
    76    37    74 1   
    77    37    75 1   
    78    37    76 1   
@<TRIPOS>SUBSTRUCTURE
     1 XOJ         1 TEMP              0 ****  ****    0 ROOT
