@<TRIPOS>MOLECULE
XOK
   47    46     1     0     0
SMALL
No Charge or Current Charge


@<TRIPOS>ATOM
      1 O           92.0060     1.5040   123.2300 o          1 XOK      -0.836300
      2 N           90.2480     0.5310   125.8500 n8         1 XOK      -0.896800
      3 CA          91.6600     0.9980   125.5860 c3         1 XOK       0.022500
      4 C           92.2570     0.7070   124.1310 c          1 XOK       0.930600
      5 CB          92.6130     0.5120   126.7160 c3         1 XOK      -0.051400
      6 CG          92.2730     1.0680   128.1230 c3         1 XOK      -0.075400
      7 CD          93.3250     0.7340   129.2110 c3         1 XOK      -0.089400
      8 CE          93.5030    -0.7680   129.5270 c3         1 XOK       0.106000
      9 NZ          92.2590    -1.3830   130.0010 ns         1 XOK      -0.559900
     10 C1          91.5750    -2.3900   129.3580 c          1 XOK       0.665100
     11 O1          92.0060    -2.9440   128.3570 o          1 XOK      -0.621100
     12 C2          90.2530    -2.7930   130.0200 c3         1 XOK      -0.152400
     13 C3          89.0380    -2.2760   129.2140 c3         1 XOK      -0.069400
     14 C4          87.6840    -2.6550   129.8540 c3         1 XOK      -0.076400
     15 C5          86.4690    -2.1340   129.0490 c3         1 XOK      -0.066400
     16 C6          85.0930    -2.5610   129.6280 c3         1 XOK       0.063400
     17 C7          83.8990    -2.1320   128.7350 c3         1 XOK      -0.077400
     18 C8          83.8530    -2.8010   127.3440 c3         1 XOK      -0.090100
     19 S6          84.8450    -1.9500   131.3600 sh         1 XOK      -0.414900
     20 OXT         92.9490    -0.2910   123.9420 o          1 XOK      -0.836300
     21 H4          91.6190     2.0920   125.6720 h1         1 XOK      -0.007300
     22 H5          92.6150    -0.5850   126.7410 hc         1 XOK       0.049200
     23 H6          93.6350     0.8220   126.4630 hc         1 XOK       0.049200
     24 H7          92.1860     2.1600   128.0580 hc         1 XOK       0.026700
     25 H8          91.2910     0.6980   128.4430 hc         1 XOK       0.026700
     26 H9          93.0480     1.2540   130.1360 hc         1 XOK       0.030200
     27 H10         94.2960     1.1460   128.9070 hc         1 XOK       0.030200
     28 H11         93.8710    -1.2920   128.6350 h1         1 XOK       0.048700
     29 H12         94.2630    -0.8820   130.3110 h1         1 XOK       0.048700
     30 H13         91.8230    -1.0020   130.8310 hn         1 XOK       0.309500
     31 H14         90.2010    -3.8880   130.0640 hc         1 XOK       0.048700
     32 H15         90.1980    -2.3760   131.0320 hc         1 XOK       0.048700
     33 H16         89.1030    -1.1840   129.1250 hc         1 XOK       0.059200
     34 H17         89.0820    -2.6810   128.1940 hc         1 XOK       0.059200
     35 H18         87.6180    -3.7470   129.9390 hc         1 XOK       0.041700
     36 H19         87.6520    -2.2520   130.8740 hc         1 XOK       0.041700
     37 H20         86.5620    -2.5040   128.0220 hc         1 XOK       0.054700
     38 H21         86.5120    -1.0390   128.9960 hc         1 XOK       0.054700
     39 H22         85.0820    -3.6580   129.6850 h1         1 XOK       0.059700
     40 H23         82.9680    -2.3810   129.2580 hc         1 XOK       0.045700
     41 H24         83.9060    -1.0420   128.6140 hc         1 XOK       0.045700
     42 H25         82.9180    -2.5430   126.8320 hc         1 XOK       0.034033
     43 H26         84.6820    -2.4650   126.7110 hc         1 XOK       0.034033
     44 H27         83.9010    -3.8920   127.4340 hc         1 XOK       0.034033
     45 H28         83.6480    -2.5530   131.5610 hs         1 XOK       0.197800
     46 H           89.9590     0.8500   126.7790 hn         1 XOK       0.326300
     47 H2          89.6100     1.0060   125.2020 hn         1 XOK       0.326300
@<TRIPOS>BOND
     1     1     4 1   
     2     2     3 1   
     3     2    46 1   
     4     2    47 1   
     5     3     4 1   
     6     3     5 1   
     7     3    21 1   
     8     4    20 1   
     9     5     6 1   
    10     5    22 1   
    11     5    23 1   
    12     6     7 1   
    13     6    24 1   
    14     6    25 1   
    15     7     8 1   
    16     7    26 1   
    17     7    27 1   
    18     8     9 1   
    19     8    28 1   
    20     8    29 1   
    21     9    10 1   
    22     9    30 1   
    23    10    11 2   
    24    10    12 1   
    25    12    13 1   
    26    12    31 1   
    27    12    32 1   
    28    13    14 1   
    29    13    33 1   
    30    13    34 1   
    31    14    15 1   
    32    14    35 1   
    33    14    36 1   
    34    15    16 1   
    35    15    37 1   
    36    15    38 1   
    37    16    17 1   
    38    16    19 1   
    39    16    39 1   
    40    17    18 1   
    41    17    40 1   
    42    17    41 1   
    43    18    42 1   
    44    18    43 1   
    45    18    44 1   
    46    19    45 1   
@<TRIPOS>SUBSTRUCTURE
     1 XOK         1 TEMP              0 ****  ****    0 ROOT
