@<TRIPOS>MOLECULE
XOK
   47    46     1     0     0
SMALL
bcc


@<TRIPOS>ATOM
      1 O           91.5180     2.5120   123.8800 o          1 XOK      -0.836300
      2 N           91.2570     2.5250   126.5390 n8         1 XOK      -0.896800
      3 CA          92.5630     2.1620   126.0020 c3         1 XOK       0.022500
      4 C           92.4970     1.9970   124.4600 c          1 XOK       0.930600
      5 CB          93.0970     0.9140   126.7040 c3         1 XOK      -0.051400
      6 CG          93.2780     1.1170   128.2030 c3         1 XOK      -0.075400
      7 CD          93.9670    -0.0470   128.9130 c3         1 XOK      -0.089400
      8 CE          93.2590    -1.3890   128.7940 c3         1 XOK       0.106000
      9 NZ          91.9210    -1.3280   129.3480 ns         1 XOK      -0.559900
     10 C1          91.0190    -2.3110   129.1970 c          1 XOK       0.665100
     11 O1          91.2480    -3.3150   128.5340 o          1 XOK      -0.621100
     12 C2          89.6990    -2.1020   129.9100 c3         1 XOK      -0.152400
     13 C3          88.5030    -2.4930   129.0490 c3         1 XOK      -0.069400
     14 C4          87.1790    -2.3370   129.7860 c3         1 XOK      -0.076400
     15 C5          85.9960    -2.7240   128.9050 c3         1 XOK      -0.066400
     16 C6          84.6380    -2.7190   129.5980 c3         1 XOK       0.063400
     17 C7          83.5120    -3.2190   128.6950 c3         1 XOK      -0.077400
     18 C8          83.6360    -4.6940   128.3300 c3         1 XOK      -0.090100
     19 S6          84.3000    -1.0000   130.1500 sh         1 XOK      -0.414900
     20 OXT         93.4510     1.4050   123.9190 o          1 XOK      -0.836300
     21 H4          93.3060     2.9630   126.1710 h1         1 XOK      -0.007300
     22 H5          92.4080     0.0840   126.5170 hc         1 XOK       0.049200
     23 H6          94.0550     0.6380   126.2580 hc         1 XOK       0.049200
     24 H7          93.8800     2.0160   128.3700 hc         1 XOK       0.026700
     25 H8          92.3100     1.3200   128.6690 hc         1 XOK       0.026700
     26 H9          94.0960     0.1970   129.9720 hc         1 XOK       0.030200
     27 H10         94.9740    -0.1750   128.5080 hc         1 XOK       0.030200
     28 H11         93.1990    -1.6940   127.7480 h1         1 XOK       0.048700
     29 H12         93.8490    -2.1540   129.3090 h1         1 XOK       0.048700
     30 H13         91.6940    -0.5580   129.9560 hn         1 XOK       0.309500
     31 H14         89.7120    -2.7180   130.8150 hc         1 XOK       0.048700
     32 H15         89.5980    -1.0670   130.2450 hc         1 XOK       0.048700
     33 H16         88.4880    -1.8770   128.1450 hc         1 XOK       0.059200
     34 H17         88.6150    -3.5280   128.7170 hc         1 XOK       0.059200
     35 H18         87.1830    -2.9640   130.6840 hc         1 XOK       0.041700
     36 H19         87.0780    -1.3050   130.1330 hc         1 XOK       0.041700
     37 H20         86.1720    -3.7340   128.5240 hc         1 XOK       0.054700
     38 H21         85.9560    -2.0700   128.0280 hc         1 XOK       0.054700
     39 H22         84.6890    -3.3470   130.4920 h1         1 XOK       0.059700
     40 H23         82.5570    -3.0650   129.2040 hc         1 XOK       0.045700
     41 H24         83.4830    -2.6060   127.7910 hc         1 XOK       0.045700
     42 H25         82.7600    -5.0220   127.7700 hc         1 XOK       0.034033
     43 H26         84.5100    -4.8990   127.7120 hc         1 XOK       0.034033
     44 H27         83.7060    -5.3180   129.2240 hc         1 XOK       0.034033
     45 H28         83.0930    -1.2230   130.6830 hs         1 XOK       0.197800
     46 H           91.3650     3.1110   127.3560 hn         1 XOK       0.326300
     47 H2          90.7830     3.0800   125.8380 hn         1 XOK       0.326300
@<TRIPOS>BOND
     1     1     4 1   
     2     2     3 1   
     3     2    46 1   
     4     2    47 1   
     5     3     4 1   
     6     3     5 1   
     7     3    21 1   
     8     4    20 1   
     9     5     6 1   
    10     5    22 1   
    11     5    23 1   
    12     6     7 1   
    13     6    24 1   
    14     6    25 1   
    15     7     8 1   
    16     7    26 1   
    17     7    27 1   
    18     8     9 1   
    19     8    28 1   
    20     8    29 1   
    21     9    10 1   
    22     9    30 1   
    23    10    11 2   
    24    10    12 1   
    25    12    13 1   
    26    12    31 1   
    27    12    32 1   
    28    13    14 1   
    29    13    33 1   
    30    13    34 1   
    31    14    15 1   
    32    14    35 1   
    33    14    36 1   
    34    15    16 1   
    35    15    37 1   
    36    15    38 1   
    37    16    17 1   
    38    16    19 1   
    39    16    39 1   
    40    17    18 1   
    41    17    40 1   
    42    17    41 1   
    43    18    42 1   
    44    18    43 1   
    45    18    44 1   
    46    19    45 1   
@<TRIPOS>SUBSTRUCTURE
     1 XOK         1 TEMP              0 ****  ****    0 ROOT
