@<TRIPOS>MOLECULE
XOL
   49    53     1     0     0
SMALL
No Charge or Current Charge


@<TRIPOS>ATOM
      1 C01          9.5820    11.7880    52.8300 ca         1 XOL      -0.107600
      2 C02         10.0520    10.5020    53.2120 ca         1 XOL      -0.058000
      3 C03         10.6080     9.6100    52.2640 ca         1 XOL      -0.115000
      4 C04         10.7080     9.9840    50.9120 ca         1 XOL      -0.079000
      5 C06          9.6970    12.1320    51.4610 ca         1 XOL       0.099400
      6 C10          9.4500    14.0870    48.4290 ca         1 XOL      -0.131900
      7 C11          9.8250    13.8140    47.0840 ca         1 XOL       0.266000
      8 C13          9.0180    16.0210    46.4020 ca         1 XOL      -0.075000
      9 C14          8.6470    16.2960    47.7240 ca         1 XOL      -0.124000
     10 C17          9.6180    11.6360    45.8680 c6         1 XOL       0.138300
     11 C18         10.2540    10.2080    45.8260 c6         1 XOL       0.143800
     12 C21         11.8710    12.5960    46.3260 c6         1 XOL       0.138300
     13 C22          8.9940    12.7090    53.8790 c          1 XOL       0.620700
     14 C05         10.2390    11.2530    50.5650 ca         1 XOL      -0.088200
     15 C08          9.6520    13.1170    49.5170 cc         1 XOL       0.501400
     16 C12          9.6030    14.7850    46.0900 ca         1 XOL      -0.155000
     17 C15          8.8610    15.3380    48.7290 ca         1 XOL      -0.047000
     18 C20         12.4770    11.1550    46.2770 c6         1 XOL       0.143800
     19 C24          7.9970    14.9590    54.1300 cc         1 XOL       0.558300
     20 C26          7.1120    16.9890    54.2850 cd         1 XOL       0.301900
     21 C27          7.0200    16.6120    55.6030 cc         1 XOL      -0.313000
     22 N07          9.3220    13.3140    50.8130 nd         1 XOL      -0.631100
     23 N09         10.2110    11.8640    49.3530 na         1 XOL      -0.295600
     24 N16         10.4210    12.5920    46.6930 nh         1 XOL      -0.799400
     25 N19         11.6870    10.2310    45.4120 n7         1 XOL      -0.842400
     26 N23          8.5640    13.9280    53.4380 ns         1 XOL      -0.465400
     27 N25          7.6730    16.0390    53.4430 nd         1 XOL      -0.716000
     28 O29          8.9110    12.3760    55.0530 o          1 XOL      -0.594100
     29 S28          7.6490    15.0090    55.8470 ss         1 XOL       0.022600
     30 H021         9.9870    10.1850    54.2520 ha         1 XOL       0.141000
     31 H031        10.9600     8.6320    52.5830 ha         1 XOL       0.122000
     32 H041        11.1320     9.3120    50.1690 ha         1 XOL       0.123000
     33 H131         8.8540    16.7610    45.6220 ha         1 XOL       0.118000
     34 H141         8.1920    17.2530    47.9740 ha         1 XOL       0.126000
     35 H171         9.5310    12.0150    44.8390 h1         1 XOL       0.048950
     36 H172         8.5980    11.5530    46.2710 h1         1 XOL       0.048950
     37 H181         9.6770     9.5740    45.1350 h1         1 XOL       0.061700
     38 H182        10.1720     9.7540    46.8250 h1         1 XOL       0.061700
     39 H211        12.4430    13.1910    47.0530 h1         1 XOL       0.048950
     40 H212        12.0040    13.0690    45.3420 h1         1 XOL       0.048950
     41 H121         9.8900    14.5770    45.0630 ha         1 XOL       0.116000
     42 H151         8.5630    15.5770    49.7480 ha         1 XOL       0.146000
     43 H201        13.5140    11.2100    45.9140 h1         1 XOL       0.061700
     44 H202        12.5140    10.7520    47.3000 h1         1 XOL       0.061700
     45 H261         6.7880    17.9390    53.8780 h4         1 XOL       0.035100
     46 H271         6.6240    17.1730    56.4390 h4         1 XOL       0.155000
     47 H09         10.5270    11.5230    48.4520 hn         1 XOL       0.388000
     48 H192        11.7280    10.5930    44.4510 hn         1 XOL       0.405000
     49 H231         8.6930    14.0710    52.4440 hn         1 XOL       0.384500
@<TRIPOS>BOND
     1     1     2 ar  
     2     1     5 ar  
     3     1    13 1   
     4     2     3 ar  
     5     2    30 1   
     6     3     4 ar  
     7     3    31 1   
     8     4    14 ar  
     9     4    32 1   
    10     5    14 ar  
    11     5    22 1   
    12     6     7 ar  
    13     6    15 1   
    14     6    17 ar  
    15     7    16 ar  
    16     7    24 1   
    17     8     9 ar  
    18     8    16 ar  
    19     8    33 1   
    20     9    17 ar  
    21     9    34 1   
    22    10    11 1   
    23    10    24 1   
    24    10    35 1   
    25    10    36 1   
    26    11    25 1   
    27    11    37 1   
    28    11    38 1   
    29    12    18 1   
    30    12    24 1   
    31    12    39 1   
    32    12    40 1   
    33    13    26 1   
    34    13    28 2   
    35    14    23 1   
    36    15    22 2   
    37    15    23 1   
    38    16    41 1   
    39    17    42 1   
    40    18    25 1   
    41    18    43 1   
    42    18    44 1   
    43    19    26 1   
    44    19    27 2   
    45    19    29 1   
    46    20    21 2   
    47    20    27 1   
    48    20    45 1   
    49    21    29 1   
    50    21    46 1   
    51    23    47 1   
    52    25    48 1   
    53    26    49 1   
@<TRIPOS>SUBSTRUCTURE
     1 XOL         1 TEMP              0 ****  ****    0 ROOT
