@<TRIPOS>MOLECULE
XOL
   49    53     1     0     0
SMALL
abcg2


@<TRIPOS>ATOM
      1 C01          9.6520    11.8820    52.7950 ca         1 XOL      -0.107600
      2 C02         10.2000    10.6850    53.2550 ca         1 XOL      -0.058000
      3 C03         11.0300     9.8940    52.4530 ca         1 XOL      -0.115000
      4 C04         11.3500    10.2640    51.1500 ca         1 XOL      -0.079000
      5 C06          9.9700    12.2690    51.4810 ca         1 XOL       0.099400
      6 C10         10.0440    14.2350    48.4860 ca         1 XOL      -0.131900
      7 C11         10.3390    13.9310    47.1350 ca         1 XOL       0.266000
      8 C13         10.0080    16.2700    46.5740 ca         1 XOL      -0.075000
      9 C14          9.6760    16.5590    47.8930 ca         1 XOL      -0.124000
     10 C17          9.4360    11.7180    46.7270 c6         1 XOL       0.138300
     11 C18          9.8560    10.2590    46.5830 c6         1 XOL       0.143800
     12 C21         11.4340    12.4110    45.5490 c6         1 XOL       0.138300
     13 C22          8.7730    12.6720    53.6900 c          1 XOL       0.620700
     14 C05         10.8080    11.4550    50.6870 ca         1 XOL      -0.088200
     15 C08         10.1470    13.2520    49.5630 cc         1 XOL       0.501400
     16 C12         10.3280    14.9710    46.2020 ca         1 XOL      -0.155000
     17 C15          9.6990    15.5440    48.8360 ca         1 XOL      -0.047000
     18 C20         11.8640    10.9510    45.4430 c6         1 XOL       0.143800
     19 C24          7.4510    14.7130    53.8010 cc         1 XOL       0.558300
     20 C26          6.2160    16.5230    54.0590 cd         1 XOL       0.301900
     21 C27          6.0080    15.9790    55.2850 cc         1 XOL      -0.313000
     22 N07          9.5790    13.3750    50.7570 nd         1 XOL      -0.631100
     23 N09         10.8960    12.1150    49.4840 na         1 XOL      -0.295600
     24 N16         10.6250    12.5940    46.7560 nh         1 XOL      -0.799400
     25 N19         10.7380    10.0150    45.4400 n7         1 XOL      -0.842400
     26 N23          8.2840    13.8310    53.1550 ns         1 XOL      -0.465400
     27 N25          7.0350    15.8060    53.2180 nd         1 XOL      -0.716000
     28 O29          8.4900    12.3220    54.8360 o          1 XOL      -0.594100
     29 S28          6.8700    14.4850    55.4280 ss         1 XOL       0.022600
     30 H021         9.9680    10.3670    54.2620 ha         1 XOL       0.141000
     31 H031        11.4300     8.9730    52.8560 ha         1 XOL       0.122000
     32 H041        11.9890     9.6520    50.5290 ha         1 XOL       0.123000
     33 H131        10.0050    17.0530    45.8260 ha         1 XOL       0.118000
     34 H141         9.4180    17.5680    48.1880 ha         1 XOL       0.126000
     35 H171         8.7900    12.0040    45.8830 h1         1 XOL       0.048950
     36 H172         8.8640    11.8550    47.6440 h1         1 XOL       0.048950
     37 H181         8.9650     9.6360    46.4840 h1         1 XOL       0.061700
     38 H182        10.3800     9.9430    47.4900 h1         1 XOL       0.061700
     39 H211        12.3090    13.0600    45.6110 h1         1 XOL       0.048950
     40 H212        10.8720    12.6810    44.6420 h1         1 XOL       0.048950
     41 H121        10.5560    14.7600    45.1680 ha         1 XOL       0.116000
     42 H151         9.4790    15.7590    49.8730 ha         1 XOL       0.146000
     43 H201        12.4450    10.8100    44.5310 h1         1 XOL       0.061700
     44 H202        12.5090    10.7060    46.2930 h1         1 XOL       0.061700
     45 H261         5.7940    17.4550    53.7120 h4         1 XOL       0.035100
     46 H271         5.4120    16.3580    56.0990 h4         1 XOL       0.155000
     47 H09         11.3640    11.8300    48.6320 hn         1 XOL       0.388000
     48 H192        10.2080    10.1440    44.5830 hn         1 XOL       0.405000
     49 H231         8.5520    14.0630    52.1930 hn         1 XOL       0.384500
@<TRIPOS>BOND
     1     1     2 ar  
     2     1     5 ar  
     3     1    13 1   
     4     2     3 ar  
     5     2    30 1   
     6     3     4 ar  
     7     3    31 1   
     8     4    14 ar  
     9     4    32 1   
    10     5    14 ar  
    11     5    22 1   
    12     6     7 ar  
    13     6    15 1   
    14     6    17 ar  
    15     7    16 ar  
    16     7    24 1   
    17     8     9 ar  
    18     8    16 ar  
    19     8    33 1   
    20     9    17 ar  
    21     9    34 1   
    22    10    11 1   
    23    10    24 1   
    24    10    35 1   
    25    10    36 1   
    26    11    25 1   
    27    11    37 1   
    28    11    38 1   
    29    12    18 1   
    30    12    24 1   
    31    12    39 1   
    32    12    40 1   
    33    13    26 1   
    34    13    28 2   
    35    14    23 1   
    36    15    22 2   
    37    15    23 1   
    38    16    41 1   
    39    17    42 1   
    40    18    25 1   
    41    18    43 1   
    42    18    44 1   
    43    19    26 1   
    44    19    27 2   
    45    19    29 1   
    46    20    21 2   
    47    20    27 1   
    48    20    45 1   
    49    21    29 1   
    50    21    46 1   
    51    23    47 1   
    52    25    48 1   
    53    26    49 1   
@<TRIPOS>SUBSTRUCTURE
     1 XOL         1 TEMP              0 ****  ****    0 ROOT
