@<TRIPOS>MOLECULE
XOM
   46    49     1     0     0
SMALL
abcg2


@<TRIPOS>ATOM
      1 C4          92.4000   -35.0150   155.1790 ca         1 XOM      -0.132300
      2 C5          92.0890   -33.6090   152.7460 ca         1 XOM      -0.054300
      3 C6          93.3150   -33.6820   153.4000 ca         1 XOM       0.114000
      4 C7          88.9660   -33.0600   165.8060 c          1 XOM       0.690100
      5 C8          92.1690   -32.9150   161.0930 c          1 XOM       0.629100
      6 C10         90.1730   -33.9020   162.4360 cy         1 XOM      -0.080400
      7 C13         88.4430   -32.4550   163.6890 c5         1 XOM       0.157600
      8 C15         91.7970   -34.0240   157.8850 cy         1 XOM       0.126300
      9 C17         91.9090   -32.8580   151.4630 c3         1 XOM      -0.048800
     10 C1          91.1650   -34.9620   154.5410 ca         1 XOM      -0.085000
     11 C2          91.0190   -34.2700   153.3510 ca         1 XOM      -0.109000
     12 C3          93.4780   -34.3620   154.5990 ca         1 XOM      -0.091000
     13 C9          90.9820   -32.0860   163.2600 cy         1 XOM      -0.080400
     14 C11         90.8400   -33.6400   159.0250 cy         1 XOM       0.086500
     15 C12         92.9820   -33.7530   158.8480 cy         1 XOM       0.086500
     16 C14         90.8860   -32.6610   161.8410 cy         1 XOM      -0.167700
     17 C16         89.8530   -33.0510   163.6710 cy         1 XOM       0.056400
     18 C18         92.5580   -35.7500   156.4860 c3         1 XOM       0.204900
     19 N19         89.8700   -33.6380   164.9800 ns         1 XOM      -0.511900
     20 N20         92.0080   -33.2970   159.8230 nj         1 XOM      -0.424800
     21 O22         93.2780   -32.8030   161.6000 o          1 XOM      -0.595100
     22 O23         88.1430   -32.2870   165.0750 os         1 XOM      -0.419100
     23 O24         91.6200   -35.3380   157.4570 os         1 XOM      -0.437000
     24 CL25        94.6970   -32.8890   152.7110 cl         1 XOM      -0.203000
     25 H1          89.3340   -34.3270   161.8830 hc         1 XOM       0.073700
     26 H2          90.8830   -34.6960   162.6750 hc         1 XOM       0.073700
     27 H3          88.3700   -31.4920   163.1870 h1         1 XOM       0.068200
     28 H4          87.7160   -33.1430   163.2500 h1         1 XOM       0.068200
     29 H5          91.7700   -33.3180   157.0490 h1         1 XOM       0.066700
     30 H6          92.5480   -33.2550   150.6730 hc         1 XOM       0.051700
     31 H7          90.8770   -32.9210   151.1230 hc         1 XOM       0.051700
     32 H8          92.1610   -31.8030   151.5790 hc         1 XOM       0.051700
     33 H9          90.3070   -35.4610   154.9760 ha         1 XOM       0.126000
     34 H10         90.0500   -34.2370   152.8690 ha         1 XOM       0.119000
     35 H11         94.4470   -34.3770   155.0830 ha         1 XOM       0.128000
     36 H12         91.9240   -32.3660   163.7330 hc         1 XOM       0.073700
     37 H13         90.8140   -31.0180   163.3970 hc         1 XOM       0.073700
     38 H14         90.1640   -32.8080   158.8210 h1         1 XOM       0.063950
     39 H15         90.2660   -34.4820   159.4180 h1         1 XOM       0.063950
     40 H16         93.5270   -34.6480   159.1600 h1         1 XOM       0.063950
     41 H17         93.6940   -32.9910   158.5300 h1         1 XOM       0.063950
     42 H18         90.1910   -32.0870   161.2230 hc         1 XOM       0.071700
     43 H19         92.3840   -36.8180   156.3400 h1         1 XOM       0.059200
     44 H20         93.5870   -35.6390   156.8520 h1         1 XOM       0.059200
     45 H21         90.6960   -34.0730   165.3600 hn         1 XOM       0.340500
     46 O21         88.8500   -33.1780   167.0000 o          1 XOM      -0.523000
@<TRIPOS>BOND
     1     1    10 ar  
     2     1    12 ar  
     3     1    18 1   
     4     2     3 ar  
     5     2     9 1   
     6     2    11 ar  
     7     3    12 ar  
     8     3    24 1   
     9     4    19 1   
    10     4    22 1   
    11     4    46 2   
    12     5    16 1   
    13     5    20 1   
    14     5    21 2   
    15     6    16 1   
    16     6    17 1   
    17     6    25 1   
    18     6    26 1   
    19     7    17 1   
    20     7    22 1   
    21     7    27 1   
    22     7    28 1   
    23     8    14 1   
    24     8    15 1   
    25     8    23 1   
    26     8    29 1   
    27     9    30 1   
    28     9    31 1   
    29     9    32 1   
    30    10    11 ar  
    31    10    33 1   
    32    11    34 1   
    33    12    35 1   
    34    13    16 1   
    35    13    17 1   
    36    13    36 1   
    37    13    37 1   
    38    14    20 1   
    39    14    38 1   
    40    14    39 1   
    41    15    20 1   
    42    15    40 1   
    43    15    41 1   
    44    16    42 1   
    45    17    19 1   
    46    18    23 1   
    47    18    43 1   
    48    18    44 1   
    49    19    45 1   
@<TRIPOS>SUBSTRUCTURE
     1 XOM         1 TEMP              0 ****  ****    0 ROOT
