@<TRIPOS>MOLECULE
XOM
   46    49     1     0     0
SMALL
No Charge or Current Charge


@<TRIPOS>ATOM
      1 C4          92.8490   -34.8820   155.2340 ca         1 XOM      -0.132300
      2 C5          91.9360   -33.4570   152.9630 ca         1 XOM      -0.054300
      3 C6          92.7940   -32.8380   153.8990 ca         1 XOM       0.114000
      4 C7          88.8230   -32.4130   165.5590 c          1 XOM       0.690100
      5 C8          91.6170   -34.0060   160.9960 c          1 XOM       0.629100
      6 C10         89.6560   -33.4330   162.1970 cy         1 XOM      -0.080400
      7 C13         89.3720   -31.1910   163.6770 c5         1 XOM       0.157600
      8 C15         91.6060   -34.6780   157.9280 cy         1 XOM       0.126300
      9 C17         91.4350   -32.7040   151.7360 c3         1 XOM      -0.048800
     10 C1          91.9940   -35.5000   154.3020 ca         1 XOM      -0.085000
     11 C2          91.5420   -34.7930   153.1750 ca         1 XOM      -0.109000
     12 C3          93.2460   -33.5470   155.0250 ca         1 XOM      -0.091000
     13 C9          91.4750   -32.7910   163.1000 cy         1 XOM      -0.080400
     14 C11         90.6640   -34.9140   159.1510 cy         1 XOM       0.086500
     15 C12         92.4660   -33.8090   158.9030 cy         1 XOM       0.086500
     16 C14         90.9290   -32.7040   161.6220 cy         1 XOM      -0.167700
     17 C16         89.9620   -32.6210   163.5110 cy         1 XOM       0.056400
     18 C18         93.3290   -35.6500   156.4620 c3         1 XOM       0.204900
     19 N19         89.5550   -33.2010   164.7350 ns         1 XOM      -0.511900
     20 N20         91.1960   -33.6100   159.6840 nj         1 XOM      -0.424800
     21 O22         92.2590   -34.9600   161.4380 o          1 XOM      -0.595100
     22 O23         88.6720   -31.1980   164.9540 os         1 XOM      -0.419100
     23 O24         92.2270   -35.8480   157.3700 os         1 XOM      -0.437000
     24 Cl25        93.3170   -31.1670   153.6860 cl         1 XOM      -0.203000
     25 H1          88.7090   -33.1930   161.7010 hc         1 XOM       0.073700
     26 H2          89.6990   -34.5230   162.3330 hc         1 XOM       0.073700
     27 H3          90.1450   -30.4120   163.7060 h1         1 XOM       0.068200
     28 H4          88.6600   -30.9230   162.8850 h1         1 XOM       0.068200
     29 H5          91.1250   -34.0850   157.1410 h1         1 XOM       0.066700
     30 H6          92.2710   -32.3740   151.1070 hc         1 XOM       0.051700
     31 H7          90.7820   -33.3270   151.1130 hc         1 XOM       0.051700
     32 H8          90.8610   -31.8160   152.0260 hc         1 XOM       0.051700
     33 H9          91.6770   -36.5300   154.4550 ha         1 XOM       0.126000
     34 H10         90.8810   -35.2870   152.4660 ha         1 XOM       0.119000
     35 H11         93.9040   -33.0540   155.7360 ha         1 XOM       0.128000
     36 H12         91.9120   -33.7270   163.4670 hc         1 XOM       0.073700
     37 H13         92.1390   -31.9750   163.4050 hc         1 XOM       0.073700
     38 H14         89.5980   -34.8770   158.9020 h1         1 XOM       0.063950
     39 H15         90.8910   -35.8290   159.7110 h1         1 XOM       0.063950
     40 H16         93.2830   -34.3610   159.3840 h1         1 XOM       0.063950
     41 H17         92.8470   -32.8850   158.4530 h1         1 XOM       0.063950
     42 H18         90.8690   -31.7440   161.0920 hc         1 XOM       0.071700
     43 H19         93.7320   -36.6200   156.1420 h1         1 XOM       0.059200
     44 H20         94.1460   -35.1050   156.9540 h1         1 XOM       0.059200
     45 H21         89.7690   -34.1490   165.0180 hn         1 XOM       0.340500
     46 O21         88.3770   -32.7350   166.6450 o          1 XOM      -0.523000
@<TRIPOS>BOND
     1     1    10 ar  
     2     1    12 ar  
     3     1    18 1   
     4     2     3 ar  
     5     2     9 1   
     6     2    11 ar  
     7     3    12 ar  
     8     3    24 1   
     9     4    19 1   
    10     4    22 1   
    11     4    46 2   
    12     5    16 1   
    13     5    20 1   
    14     5    21 2   
    15     6    16 1   
    16     6    17 1   
    17     6    25 1   
    18     6    26 1   
    19     7    17 1   
    20     7    22 1   
    21     7    27 1   
    22     7    28 1   
    23     8    14 1   
    24     8    15 1   
    25     8    23 1   
    26     8    29 1   
    27     9    30 1   
    28     9    31 1   
    29     9    32 1   
    30    10    11 ar  
    31    10    33 1   
    32    11    34 1   
    33    12    35 1   
    34    13    16 1   
    35    13    17 1   
    36    13    36 1   
    37    13    37 1   
    38    14    20 1   
    39    14    38 1   
    40    14    39 1   
    41    15    20 1   
    42    15    40 1   
    43    15    41 1   
    44    16    42 1   
    45    17    19 1   
    46    18    23 1   
    47    18    43 1   
    48    18    44 1   
    49    19    45 1   
@<TRIPOS>SUBSTRUCTURE
     1 XOM         1 TEMP              0 ****  ****    0 ROOT
