@<TRIPOS>MOLECULE
XON
   60    65     1     0     0
SMALL
abcg2


@<TRIPOS>ATOM
      1 N1          13.4260    14.1800    30.8750 nu         1 XON      -0.920200
      2 N3          21.5750    11.6770    29.9120 nb         1 XON      -0.699000
      3 C4          15.9820    11.6190    30.1990 ca         1 XON       0.226500
      4 C5          14.9270    12.2480    30.8240 ca         1 XON      -0.213500
      5 C6          14.5090    13.4940    30.3480 ca         1 XON       0.386000
      6 C7          13.0280    14.3090    32.1860 c2         1 XON       0.825500
      7 C8          11.6070    15.1750    33.8320 c6         1 XON       0.144800
      8 C10         13.4660    13.7180    34.4040 c6         1 XON       0.170600
      9 C13         19.2320    12.1750    30.1750 ca         1 XON      -0.273000
     10 C15         21.2340    11.1320    28.7520 ca         1 XON       0.387500
     11 C17         20.0730    10.4000    26.9210 cc         1 XON      -0.101400
     12 C20         19.1850    10.4950    24.5050 cx         1 XON      -0.093900
     13 C21         18.4480     8.6810    26.1520 c3         1 XON       0.335000
     14 C22         12.2900    14.8740    36.2550 c6         1 XON      -0.101400
     15 C24         13.1770    17.4390    35.3970 c6         1 XON       0.155100
     16 C1          19.9380    11.0370    28.1990 ca         1 XON      -0.136800
     17 C2          18.9070    11.5840    28.9650 ca         1 XON       0.217100
     18 C3          16.6440    12.1610    29.1090 ca         1 XON      -0.032900
     19 F1          16.3930    10.4300    30.6460 f          1 XON      -0.153000
     20 N2          11.9600    14.9330    32.4510 n2         1 XON      -0.735900
     21 C9          12.7750    15.0090    34.8090 c6         1 XON      -0.116000
     22 O2          13.8950    13.7640    33.0420 os         1 XON      -0.470600
     23 C11         15.1560    14.0620    29.2470 ca         1 XON      -0.213500
     24 C12         16.2010    13.3920    28.6540 ca         1 XON       0.226500
     25 F2          16.8290    13.9450    27.6150 f          1 XON      -0.153000
     26 C14         20.5660    12.1870    30.5950 ca         1 XON       0.390900
     27 N4          22.0970    10.5740    27.8630 na         1 XON      -0.316400
     28 C16         21.4070    10.1410    26.7720 cd         1 XON      -0.133100
     29 C18         19.0260    10.0450    25.9330 cx         1 XON      -0.129800
     30 C19         18.1390    11.1150    25.3680 cx         1 XON      -0.093900
     31 F3          17.4870     8.3640    25.2730 f          1 XON      -0.115333
     32 F4          19.3890     7.7290    26.0460 f          1 XON      -0.115333
     33 F5          17.9120     8.5530    27.3740 f          1 XON      -0.115333
     34 C23         11.7900    16.2000    36.8090 c6         1 XON       0.155100
     35 O3          12.7750    17.2040    36.7280 os         1 XON      -0.446000
     36 C25         13.7540    16.1940    34.7420 c6         1 XON      -0.101400
     37 H1          12.9660    14.8300    30.2560 hn         1 XON       0.520000
     38 H2          14.4330    11.7520    31.6460 ha         1 XON       0.147000
     39 H3          11.1790    16.1780    33.8970 h1         1 XON       0.061700
     40 H4          10.7970    14.4930    34.1210 h1         1 XON       0.061700
     41 H5          12.7910    12.8650    34.5390 h1         1 XON       0.064700
     42 H6          14.3660    13.5370    34.9920 h1         1 XON       0.064700
     43 H7          18.4860    12.6330    30.8100 ha         1 XON       0.132000
     44 H8          18.8720     9.8310    23.7100 hc         1 XON       0.085450
     45 H9          20.0740    11.0670    24.2770 hc         1 XON       0.085450
     46 H10         11.4920    14.1290    36.3270 hc         1 XON       0.055200
     47 H11         13.1150    14.5180    36.8820 hc         1 XON       0.055200
     48 H12         13.9290    18.2290    35.4260 h1         1 XON       0.047700
     49 H13         12.3320    17.8220    34.8070 h1         1 XON       0.047700
     50 H14         14.8530    15.0280    28.8650 ha         1 XON       0.147000
     51 H15         20.8060    12.6460    31.5470 h4         1 XON       0.020100
     52 H16         23.0960    10.5130    27.9860 hn         1 XON       0.366000
     53 H17         21.9190     9.6780    25.9440 h4         1 XON       0.222000
     54 H18         18.3030    12.1170    25.7390 hc         1 XON       0.085450
     55 H19         17.1010    10.8830    25.1690 hc         1 XON       0.085450
     56 H20         10.8770    16.5120    36.2800 h1         1 XON       0.047700
     57 H21         11.5280    16.0930    37.8630 h1         1 XON       0.047700
     58 H22         14.6820    15.9190    35.2530 hc         1 XON       0.055200
     59 H23         14.0220    16.4410    33.7120 hc         1 XON       0.055200
     60 O1          17.6500    11.5010    28.4680 os         1 XON      -0.199200
@<TRIPOS>BOND
     1     1     5 1   
     2     1     6 1   
     3     1    37 1   
     4     2    10 ar  
     5     2    26 ar  
     6     3     4 ar  
     7     3    18 ar  
     8     3    19 1   
     9     4     5 ar  
    10     4    38 1   
    11     5    23 ar  
    12     6    20 2   
    13     6    22 1   
    14     7    20 1   
    15     7    21 1   
    16     7    39 1   
    17     7    40 1   
    18     8    21 1   
    19     8    22 1   
    20     8    41 1   
    21     8    42 1   
    22     9    17 ar  
    23     9    26 ar  
    24     9    43 1   
    25    10    16 ar  
    26    10    27 1   
    27    11    16 1   
    28    11    28 2   
    29    11    29 1   
    30    12    29 1   
    31    12    30 1   
    32    12    44 1   
    33    12    45 1   
    34    13    29 1   
    35    13    31 1   
    36    13    32 1   
    37    13    33 1   
    38    14    21 1   
    39    14    34 1   
    40    14    46 1   
    41    14    47 1   
    42    15    35 1   
    43    15    36 1   
    44    15    48 1   
    45    15    49 1   
    46    16    17 ar  
    47    17    60 1   
    48    18    24 ar  
    49    18    60 1   
    50    21    36 1   
    51    23    24 ar  
    52    23    50 1   
    53    24    25 1   
    54    26    51 1   
    55    27    28 1   
    56    27    52 1   
    57    28    53 1   
    58    29    30 1   
    59    30    54 1   
    60    30    55 1   
    61    34    35 1   
    62    34    56 1   
    63    34    57 1   
    64    36    58 1   
    65    36    59 1   
@<TRIPOS>SUBSTRUCTURE
     1 XON         1 TEMP              0 ****  ****    0 ROOT
