@<TRIPOS>MOLECULE
XON
   60    65     1     0     0
SMALL
No Charge or Current Charge


@<TRIPOS>ATOM
      1 N1          13.2180    12.9150    31.2940 nu         1 XON      -0.920200
      2 N3          21.2250    14.3310    28.1590 nb         1 XON      -0.699000
      3 C4          16.6710    12.3100    30.1140 ca         1 XON       0.226500
      4 C5          15.5770    12.4680    30.9740 ca         1 XON      -0.213500
      5 C6          14.3110    12.7740    30.4580 ca         1 XON       0.386000
      6 C7          13.0500    13.6700    32.4020 c2         1 XON       0.825500
      7 C8          13.7790    15.1390    34.1520 c6         1 XON       0.144800
      8 C10         11.3740    14.6440    33.8270 c6         1 XON       0.170600
      9 C13         18.8430    14.2180    28.5940 ca         1 XON      -0.273000
     10 C15         21.1290    13.1330    27.5540 ca         1 XON       0.387500
     11 C17         20.2080    11.2010    26.7260 cc         1 XON      -0.101400
     12 C20         19.2450     9.6510    24.9520 cx         1 XON      -0.093900
     13 C21         19.0400     9.1100    27.5290 c3         1 XON       0.335000
     14 C22         12.0820    15.9290    35.9090 c6         1 XON      -0.101400
     15 C24         13.5380    13.6220    36.9610 c6         1 XON       0.155100
     16 C1          19.9510    12.4330    27.4400 ca         1 XON      -0.136800
     17 C2          18.7620    12.9610    27.9700 ca         1 XON       0.217100
     18 C3          16.5080    12.4580    28.7200 ca         1 XON      -0.032900
     19 F1          17.8780    12.0000    30.6410 f          1 XON      -0.153000
     20 N2          14.0070    14.3360    32.9320 n2         1 XON      -0.735900
     21 C9          12.4650    14.7870    34.9140 c6         1 XON      -0.116000
     22 O2          11.7700    13.6560    32.8580 os         1 XON      -0.470600
     23 C11         14.1340    12.8940    29.0750 ca         1 XON      -0.213500
     24 C12         15.2280    12.7360    28.2110 ca         1 XON       0.226500
     25 F2          15.0400    12.8610    26.8780 f          1 XON      -0.153000
     26 C14         20.0890    14.8610    28.6710 ca         1 XON       0.390900
     27 N4          22.1360    12.4150    26.9520 na         1 XON      -0.316400
     28 C16         21.5660    11.2270    26.4400 cd         1 XON      -0.133100
     29 C18         19.2370    10.1350    26.3910 cx         1 XON      -0.129800
     30 C19         18.1000    10.4970    25.4520 cx         1 XON      -0.093900
     31 F3          18.0950     8.1890    27.2270 f          1 XON      -0.115333
     32 F4          20.1920     8.4430    27.7720 f          1 XON      -0.115333
     33 F5          18.6660     9.7080    28.6820 f          1 XON      -0.115333
     34 C23         13.0540    15.9890    37.1150 c6         1 XON       0.155100
     35 O3          13.0750    14.7120    37.7870 os         1 XON      -0.446000
     36 C25         12.6070    13.4560    35.7310 c6         1 XON      -0.101400
     37 H1          12.3220    12.7210    30.8650 hn         1 XON       0.520000
     38 H2          15.7130    12.3460    32.0430 ha         1 XON       0.147000
     39 H3          14.6480    15.0220    34.8160 h1         1 XON       0.061700
     40 H4          13.7570    16.1970    33.8510 h1         1 XON       0.061700
     41 H5          11.2320    15.6050    33.3110 h1         1 XON       0.064700
     42 H6          10.4100    14.3510    34.2690 h1         1 XON       0.064700
     43 H7          17.9650    14.7020    29.0090 ha         1 XON       0.132000
     44 H8          19.0480     8.5990    24.7580 hc         1 XON       0.085450
     45 H9          19.9420    10.1120    24.2560 hc         1 XON       0.085450
     46 H10         12.0700    16.9020    35.3970 hc         1 XON       0.055200
     47 H11         11.0630    15.7710    36.2870 hc         1 XON       0.055200
     48 H12         13.5340    12.6980    37.5570 h1         1 XON       0.047700
     49 H13         14.5740    13.8140    36.6480 h1         1 XON       0.047700
     50 H14         13.1550    13.1160    28.6630 ha         1 XON       0.147000
     51 H15         20.1810    15.8340    29.1520 h4         1 XON       0.020100
     52 H16         23.1050    12.7040    26.8950 hn         1 XON       0.366000
     53 H17         22.1620    10.4820    25.9180 h4         1 XON       0.222000
     54 H18         18.0390    11.5230    25.0980 hc         1 XON       0.085450
     55 H19         17.1360    10.0150    25.5970 hc         1 XON       0.085450
     56 H20         14.0710    16.2480    36.7860 h1         1 XON       0.047700
     57 H21         12.7210    16.7600    37.8250 h1         1 XON       0.047700
     58 H22         11.6190    13.1280    36.0830 hc         1 XON       0.055200
     59 H23         12.9870    12.6430    35.0980 hc         1 XON       0.055200
     60 O1          17.5640    12.2930    27.8460 os         1 XON      -0.199200
@<TRIPOS>BOND
     1     1     5 1   
     2     1     6 1   
     3     1    37 1   
     4     2    10 ar  
     5     2    26 ar  
     6     3     4 ar  
     7     3    18 ar  
     8     3    19 1   
     9     4     5 ar  
    10     4    38 1   
    11     5    23 ar  
    12     6    20 2   
    13     6    22 1   
    14     7    20 1   
    15     7    21 1   
    16     7    39 1   
    17     7    40 1   
    18     8    21 1   
    19     8    22 1   
    20     8    41 1   
    21     8    42 1   
    22     9    17 ar  
    23     9    26 ar  
    24     9    43 1   
    25    10    16 ar  
    26    10    27 1   
    27    11    16 1   
    28    11    28 2   
    29    11    29 1   
    30    12    29 1   
    31    12    30 1   
    32    12    44 1   
    33    12    45 1   
    34    13    29 1   
    35    13    31 1   
    36    13    32 1   
    37    13    33 1   
    38    14    21 1   
    39    14    34 1   
    40    14    46 1   
    41    14    47 1   
    42    15    35 1   
    43    15    36 1   
    44    15    48 1   
    45    15    49 1   
    46    16    17 ar  
    47    17    60 1   
    48    18    24 ar  
    49    18    60 1   
    50    21    36 1   
    51    23    24 ar  
    52    23    50 1   
    53    24    25 1   
    54    26    51 1   
    55    27    28 1   
    56    27    52 1   
    57    28    53 1   
    58    29    30 1   
    59    30    54 1   
    60    30    55 1   
    61    34    35 1   
    62    34    56 1   
    63    34    57 1   
    64    36    58 1   
    65    36    59 1   
@<TRIPOS>SUBSTRUCTURE
     1 XON         1 TEMP              0 ****  ****    0 ROOT
