@<TRIPOS>MOLECULE
XOP
   38    40     1     0     0
SMALL
No Charge or Current Charge


@<TRIPOS>ATOM
      1 C1          -2.0300     0.2830     0.4370 ca         1 XOP      -0.254500
      2 C2          -2.2340    -0.2880     1.7100 ca         1 XOP      -0.050000
      3 C3          -2.8440    -1.5500     1.8290 ca         1 XOP      -0.152500
      4 C4          -3.2590    -2.2450     0.6810 ca         1 XOP      -0.117000
      5 C5          -3.0670    -1.6750    -0.5880 ca         1 XOP      -0.152500
      6 C6          -2.4580    -0.4140    -0.7120 ca         1 XOP      -0.050000
      7 C7           1.3900     1.4200     0.2540 c6         1 XOP       0.248300
      8 C8           1.4550     0.2240     1.2440 c6         1 XOP      -0.077400
      9 C9           1.9540    -1.0970     0.5880 c5         1 XOP       0.164500
     10 N            3.2960    -0.8440     0.0010 n3         1 XOP      -0.702600
     11 O1          -1.0020     2.5860     1.5720 o          1 XOP      -0.825000
     12 O2           0.1510     1.5200    -0.4830 os         1 XOP      -0.616400
     13 O3          -2.0520     2.7650    -0.6720 o          1 XOP      -0.825000
     14 P           -1.2340     1.9220     0.2520 p5         1 XOP       1.302900
     15 C10          1.1450    -1.5800    -0.6560 c5         1 XOP      -0.094400
     16 C11          1.8200    -0.8370    -1.8590 c5         1 XOP      -0.094400
     17 C12          2.9790    -0.0230    -1.1980 c5         1 XOP       0.164500
     18 C13          2.5980     1.4050    -0.7140 c6         1 XOP      -0.077400
     19 C14          4.1130    -2.0550    -0.2610 c3         1 XOP       0.152100
     20 H2          -1.9180     0.2420     2.6070 ha         1 XOP       0.123500
     21 H3          -2.9940    -1.9880     2.8130 ha         1 XOP       0.087500
     22 H4          -3.7290    -3.2200     0.7750 ha         1 XOP       0.083000
     23 H5          -3.3900    -2.2110    -1.4780 ha         1 XOP       0.087500
     24 H6          -2.3090     0.0190    -1.7000 ha         1 XOP       0.123500
     25 H7           1.4750     2.3430     0.8470 h1         1 XOP       0.047700
     26 H8           2.1460     0.4830     2.0570 hc         1 XOP       0.044950
     27 H8A          0.4890     0.0540     1.7300 hc         1 XOP       0.044950
     28 H9           1.9860    -1.8700     1.3680 h1         1 XOP       0.040200
     29 H10          1.2220    -2.6660    -0.7760 hc         1 XOP       0.046700
     30 H10A         0.0800    -1.3540    -0.5660 hc         1 XOP       0.046700
     31 H11          2.2100    -1.5550    -2.5890 hc         1 XOP       0.046700
     32 H11A         1.1190    -0.1910    -2.4000 hc         1 XOP       0.046700
     33 H12          3.8410     0.0680    -1.8740 h1         1 XOP       0.040200
     34 H13          2.3930     2.0490    -1.5790 hc         1 XOP       0.044950
     35 H13A         3.4670     1.8460    -0.2070 hc         1 XOP       0.044950
     36 H14          3.6220    -2.7380    -0.9650 h1         1 XOP       0.018700
     37 H14A         5.0870    -1.7730    -0.6820 h1         1 XOP       0.018700
     38 H14B         4.2940    -2.6010     0.6750 h1         1 XOP       0.018700
@<TRIPOS>BOND
     1     1     2 ar  
     2     1     6 ar  
     3     1    14 1   
     4     2     3 ar  
     5     2    20 1   
     6     3     4 ar  
     7     3    21 1   
     8     4     5 ar  
     9     4    22 1   
    10     5     6 ar  
    11     5    23 1   
    12     6    24 1   
    13     7     8 1   
    14     7    12 1   
    15     7    18 1   
    16     7    25 1   
    17     8     9 1   
    18     8    26 1   
    19     8    27 1   
    20     9    10 1   
    21     9    15 1   
    22     9    28 1   
    23    10    17 1   
    24    10    19 1   
    25    11    14 1   
    26    12    14 1   
    27    13    14 1   
    28    15    16 1   
    29    15    29 1   
    30    15    30 1   
    31    16    17 1   
    32    16    31 1   
    33    16    32 1   
    34    17    18 1   
    35    17    33 1   
    36    18    34 1   
    37    18    35 1   
    38    19    36 1   
    39    19    37 1   
    40    19    38 1   
@<TRIPOS>SUBSTRUCTURE
     1 XOP         1 TEMP              0 ****  ****    0 ROOT
