@<TRIPOS>MOLECULE
XOP
   38    40     1     0     0
SMALL
abcg2


@<TRIPOS>ATOM
      1 C1          -2.0740     0.2650     0.3900 ca         1 XOP      -0.254500
      2 C2          -2.2250    -0.2560     1.6720 ca         1 XOP      -0.050000
      3 C3          -2.8400    -1.4860     1.8730 ca         1 XOP      -0.152500
      4 C4          -3.3150    -2.2110     0.7880 ca         1 XOP      -0.117000
      5 C5          -3.1790    -1.6970    -0.4950 ca         1 XOP      -0.152500
      6 C6          -2.5700    -0.4650    -0.6900 ca         1 XOP      -0.050000
      7 C7           1.4090     1.3580     0.3250 c6         1 XOP       0.248300
      8 C8           1.4740     0.1340     1.2420 c6         1 XOP      -0.077400
      9 C9           1.9920    -1.1200     0.5400 c5         1 XOP       0.164500
     10 N            3.3320    -0.8200     0.0330 n3         1 XOP      -0.702600
     11 O1          -1.0630     2.5630     1.4310 o          1 XOP      -0.825000
     12 O2           0.2290     1.3940    -0.4710 os         1 XOP      -0.616400
     13 O3          -1.9170     2.5410    -1.0470 o          1 XOP      -0.825000
     14 P           -1.2400     1.8630     0.1110 p5         1 XOP       1.302900
     15 C10          1.1680    -1.5020    -0.7110 c5         1 XOP      -0.094400
     16 C11          1.8700    -0.7360    -1.8510 c5         1 XOP      -0.094400
     17 C12          3.0180     0.0090    -1.1320 c5         1 XOP       0.164500
     18 C13          2.6160     1.3890    -0.6150 c6         1 XOP      -0.077400
     19 C14          4.0870    -2.0100    -0.3040 c3         1 XOP       0.152100
     20 H2          -1.8590     0.3030     2.5240 ha         1 XOP       0.123500
     21 H3          -2.9500    -1.8780     2.8760 ha         1 XOP       0.087500
     22 H4          -3.7930    -3.1700     0.9430 ha         1 XOP       0.083000
     23 H5          -3.5540    -2.2540    -1.3450 ha         1 XOP       0.087500
     24 H6          -2.4790    -0.0710    -1.6940 ha         1 XOP       0.123500
     25 H7           1.4350     2.2550     0.9510 h1         1 XOP       0.047700
     26 H8           2.1600     0.3640     2.0630 hc         1 XOP       0.044950
     27 H8A          0.5000    -0.0520     1.6960 hc         1 XOP       0.044950
     28 H9           2.0420    -1.9380     1.2640 h1         1 XOP       0.040200
     29 H10          1.2200    -2.5800    -0.8790 hc         1 XOP       0.046700
     30 H10A         0.1140    -1.2460    -0.6110 hc         1 XOP       0.046700
     31 H11          2.2780    -1.4270    -2.5920 hc         1 XOP       0.046700
     32 H11A         1.2040    -0.0570    -2.3810 hc         1 XOP       0.046700
     33 H12          3.9010     0.1130    -1.7680 h1         1 XOP       0.040200
     34 H13          2.4180     2.0750    -1.4430 hc         1 XOP       0.044950
     35 H13A         3.4670     1.7980    -0.0650 hc         1 XOP       0.044950
     36 H14          3.6050    -2.6740    -1.0360 h1         1 XOP       0.018700
     37 H14A         5.0590    -1.7260    -0.7100 h1         1 XOP       0.018700
     38 H14B         4.2680    -2.5960     0.5990 h1         1 XOP       0.018700
@<TRIPOS>BOND
     1     1     2 ar  
     2     1     6 ar  
     3     1    14 1   
     4     2     3 ar  
     5     2    20 1   
     6     3     4 ar  
     7     3    21 1   
     8     4     5 ar  
     9     4    22 1   
    10     5     6 ar  
    11     5    23 1   
    12     6    24 1   
    13     7     8 1   
    14     7    12 1   
    15     7    18 1   
    16     7    25 1   
    17     8     9 1   
    18     8    26 1   
    19     8    27 1   
    20     9    10 1   
    21     9    15 1   
    22     9    28 1   
    23    10    17 1   
    24    10    19 1   
    25    11    14 1   
    26    12    14 1   
    27    13    14 1   
    28    15    16 1   
    29    15    29 1   
    30    15    30 1   
    31    16    17 1   
    32    16    31 1   
    33    16    32 1   
    34    17    18 1   
    35    17    33 1   
    36    18    34 1   
    37    18    35 1   
    38    19    36 1   
    39    19    37 1   
    40    19    38 1   
@<TRIPOS>SUBSTRUCTURE
     1 XOP         1 TEMP              0 ****  ****    0 ROOT
