@<TRIPOS>MOLECULE
XOQ
   58    61     1     0     0
SMALL
abcg2


@<TRIPOS>ATOM
      1 C10         27.2150   -22.5260    -5.1450 c3         1 XOQ       0.163600
      2 C13         26.0810   -21.2990    -7.4490 ca         1 XOQ      -0.171000
      3 C14         25.4610   -20.7720    -8.5750 ca         1 XOQ      -0.123000
      4 C15         24.1430   -21.1090    -8.8340 ca         1 XOQ       0.295900
      5 C17         23.9940   -22.3860    -6.9170 cp         1 XOQ       0.369500
      6 C19         23.0260   -22.8200    -4.6710 ca         1 XOQ      -0.142000
      7 C20         22.1830   -23.5030    -3.7800 ca         1 XOQ       0.296000
      8 N21         22.1140   -23.1630    -2.4310 nh         1 XOQ      -0.801400
      9 C22         20.8620   -23.3520    -1.6940 c6         1 XOQ       0.159800
     10 C23         19.9630   -22.1200    -1.8410 c6         1 XOQ       0.112300
     11 C25         21.9360   -20.7240    -2.1020 c6         1 XOQ       0.112300
     12 C28         21.5620   -24.9560    -5.6300 ca         1 XOQ      -0.088000
     13 C29         22.3910   -24.2610    -6.5040 ca         1 XOQ      -0.116000
     14 C02         25.7670   -24.4270    -2.4820 cc         1 XOQ      -0.093300
     15 C06         26.8820   -22.6510    -1.7450 cd         1 XOQ       0.262300
     16 C07         27.8010   -21.4830    -1.6010 c3         1 XOQ      -0.118400
     17 C08         26.7700   -23.5380    -2.8420 cd         1 XOQ      -0.213300
     18 C09         27.5990   -23.5500    -4.0880 c3         1 XOQ       0.015900
     19 C12         25.3530   -22.1430    -6.6160 ca         1 XOQ       0.107100
     20 C18         23.1330   -23.1880    -6.0110 cp         1 XOQ      -0.093500
     21 C26         22.8060   -21.9720    -1.9390 c6         1 XOQ       0.159800
     22 C27         21.4520   -24.5920    -4.2960 ca         1 XOQ      -0.168000
     23 N03         25.3500   -24.0590    -1.2450 na         1 XOQ       0.119800
     24 N05         26.0230   -22.9780    -0.7800 nc         1 XOQ      -0.536800
     25 N16         23.4270   -21.8900    -8.0180 nb         1 XOQ      -0.636000
     26 N24         20.6260   -20.8690    -1.4510 n7         1 XOQ      -0.840400
     27 O11         25.8630   -22.7870    -5.5420 os         1 XOQ      -0.335100
     28 H102        27.8810   -22.6250    -6.0050 h1         1 XOQ       0.035700
     29 H101        27.2840   -21.5040    -4.7630 h1         1 XOQ       0.035700
     30 H131        27.1140   -21.0610    -7.2380 ha         1 XOQ       0.121000
     31 H141        26.0020   -20.1150    -9.2430 ha         1 XOQ       0.121000
     32 H151        23.6350   -20.7330    -9.7150 h4         1 XOQ       0.023100
     33 H191        23.6050   -21.9750    -4.3350 ha         1 XOQ       0.120000
     34 H222        21.1170   -23.4960    -0.6390 h1         1 XOQ       0.059450
     35 H221        20.3460   -24.2470    -2.0270 h1         1 XOQ       0.059450
     36 H232        19.0610   -22.2410    -1.2380 h1         1 XOQ       0.062700
     37 H231        19.6540   -22.0310    -2.8880 h1         1 XOQ       0.062700
     38 H251        21.7700   -20.5310    -3.1650 h1         1 XOQ       0.062700
     39 H252        22.4430   -19.8540    -1.6800 h1         1 XOQ       0.062700
     40 H281        20.9890   -25.8030    -5.9900 ha         1 XOQ       0.110000
     41 H291        22.4640   -24.5410    -7.5460 ha         1 XOQ       0.124000
     42 H013        25.2730   -26.5100    -2.6250 hc         1 XOQ       0.055700
     43 H011        24.1180   -25.4290    -3.4060 hc         1 XOQ       0.055700
     44 H012        25.6840   -25.7300    -4.1580 hc         1 XOQ       0.055700
     45 H041        24.2210   -24.1290     0.4740 h1         1 XOQ       0.058033
     46 H042        23.4140   -24.7900    -0.9620 h1         1 XOQ       0.058033
     47 H043        24.6940   -25.7240    -0.1470 h1         1 XOQ       0.058033
     48 H072        27.7680   -21.0970    -0.5830 hc         1 XOQ       0.044033
     49 H071        28.8310   -21.7630    -1.8330 hc         1 XOQ       0.044033
     50 H073        27.5260   -20.6740    -2.2830 hc         1 XOQ       0.044033
     51 H091        27.5680   -24.5410    -4.5460 hc         1 XOQ       0.053200
     52 H092        28.6470   -23.3580    -3.8350 hc         1 XOQ       0.053200
     53 H262        23.7740   -21.8650    -2.4210 h1         1 XOQ       0.059450
     54 H261        23.0000   -22.1310    -0.8750 h1         1 XOQ       0.059450
     55 H271        20.8070   -25.1720    -3.6540 ha         1 XOQ       0.108000
     56 H241        20.7680   -20.8810    -0.4450 hn         1 XOQ       0.398000
     57 C01         25.1790   -25.5880    -3.2040 c3         1 XOQ      -0.035800
     58 C04         24.3590   -24.7230    -0.4240 c3         1 XOQ       0.069900
@<TRIPOS>BOND
     1     1    18 1   
     2     1    27 1   
     3     1    28 1   
     4     1    29 1   
     5     2     3 ar  
     6     2    19 ar  
     7     2    30 1   
     8     3     4 ar  
     9     3    31 1   
    10     4    25 ar  
    11     4    32 1   
    12     5    19 ar  
    13     5    20 1   
    14     5    25 ar  
    15     6     7 ar  
    16     6    20 ar  
    17     6    33 1   
    18     7     8 1   
    19     7    22 ar  
    20     8     9 1   
    21     8    21 1   
    22     9    10 1   
    23     9    34 1   
    24     9    35 1   
    25    10    26 1   
    26    10    36 1   
    27    10    37 1   
    28    11    21 1   
    29    11    26 1   
    30    11    38 1   
    31    11    39 1   
    32    12    13 ar  
    33    12    22 ar  
    34    12    40 1   
    35    13    20 ar  
    36    13    41 1   
    37    14    17 2   
    38    14    23 1   
    39    14    57 1   
    40    15    16 1   
    41    15    17 1   
    42    15    24 2   
    43    16    48 1   
    44    16    49 1   
    45    16    50 1   
    46    17    18 1   
    47    18    51 1   
    48    18    52 1   
    49    19    27 1   
    50    21    53 1   
    51    21    54 1   
    52    22    55 1   
    53    23    24 1   
    54    23    58 1   
    55    26    56 1   
    56    42    57 1   
    57    43    57 1   
    58    44    57 1   
    59    45    58 1   
    60    46    58 1   
    61    47    58 1   
@<TRIPOS>SUBSTRUCTURE
     1 XOQ         1 TEMP              0 ****  ****    0 ROOT
