@<TRIPOS>MOLECULE
XOQ
   58    61     1     0     0
SMALL
No Charge or Current Charge


@<TRIPOS>ATOM
      1 C10         27.2190   -22.2450    -5.0770 c3         1 XOQ       0.163600
      2 C13         25.9860   -21.3720    -7.6040 ca         1 XOQ      -0.171000
      3 C14         25.2910   -20.9990    -8.7690 ca         1 XOQ      -0.123000
      4 C15         23.9770   -21.4620    -8.9710 ca         1 XOQ       0.295900
      5 C17         23.9720   -22.5970    -6.9390 cp         1 XOQ       0.369500
      6 C19         22.9360   -22.8530    -4.6490 ca         1 XOQ      -0.142000
      7 C20         22.1550   -23.5410    -3.6990 ca         1 XOQ       0.296000
      8 N21         21.8810   -22.9870    -2.4220 nh         1 XOQ      -0.801400
      9 C22         20.4850   -22.9520    -1.8790 c6         1 XOQ       0.159800
     10 C23         19.9140   -21.4960    -1.8170 c6         1 XOQ       0.112300
     11 C25         22.1860   -20.5640    -1.7140 c6         1 XOQ       0.112300
     12 C28         21.8320   -25.3350    -5.3310 ca         1 XOQ      -0.088000
     13 C29         22.5930   -24.6260    -6.2740 ca         1 XOQ      -0.116000
     14 C02         25.8570   -24.4680    -2.7160 cc         1 XOQ      -0.093300
     15 C06         26.7550   -22.7210    -1.6610 cd         1 XOQ       0.262300
     16 C07         27.6030   -21.5220    -1.3340 c3         1 XOQ      -0.118400
     17 C08         26.7950   -23.4800    -2.8550 cd         1 XOQ      -0.213300
     18 C09         27.7280   -23.2560    -4.0270 c3         1 XOQ       0.015900
     19 C12         25.3170   -22.1950    -6.6720 ca         1 XOQ       0.107100
     20 C18         23.1680   -23.3760    -5.9460 cp         1 XOQ      -0.093500
     21 C26         22.7980   -22.0020    -1.7600 c6         1 XOQ       0.159800
     22 C27         21.6150   -24.7930    -4.0520 ca         1 XOQ      -0.168000
     23 N03         25.3240   -24.2540    -1.4450 na         1 XOQ       0.119800
     24 N05         25.8790   -23.1760    -0.7870 nc         1 XOQ      -0.536800
     25 N16         23.3300   -22.2500    -8.0830 nb         1 XOQ      -0.636000
     26 N24         20.8210   -20.5420    -1.1100 n7         1 XOQ      -0.840400
     27 O11         25.9230   -22.6790    -5.5250 os         1 XOQ      -0.335100
     28 H102        27.9400   -22.2320    -5.9030 h1         1 XOQ       0.035700
     29 H101        27.1610   -21.2390    -4.6430 h1         1 XOQ       0.035700
     30 H131        27.0060   -21.0310    -7.4530 ha         1 XOQ       0.121000
     31 H141        25.7630   -20.3680    -9.5170 ha         1 XOQ       0.121000
     32 H151        23.4280   -21.1940    -9.8730 h4         1 XOQ       0.023100
     33 H191        23.3470   -21.8790    -4.4070 ha         1 XOQ       0.120000
     34 H222        20.4700   -23.3890    -0.8690 h1         1 XOQ       0.059450
     35 H221        19.8060   -23.5620    -2.4920 h1         1 XOQ       0.059450
     36 H232        18.9320   -21.5130    -1.3220 h1         1 XOQ       0.062700
     37 H231        19.7510   -21.1420    -2.8460 h1         1 XOQ       0.062700
     38 H251        22.1360   -20.1710    -2.7410 h1         1 XOQ       0.062700
     39 H252        22.8570   -19.9030    -1.1450 h1         1 XOQ       0.062700
     40 H281        21.4040   -26.3000    -5.5930 ha         1 XOQ       0.110000
     41 H291        22.7480   -25.0480    -7.2650 ha         1 XOQ       0.124000
     42 H013        25.9990   -26.4980    -3.4280 hc         1 XOQ       0.055700
     43 H011        24.3840   -25.7850    -3.5970 hc         1 XOQ       0.055700
     44 H012        25.6750   -25.3080    -4.7010 hc         1 XOQ       0.055700
     45 H041        23.9780   -24.5880     0.1530 h1         1 XOQ       0.058033
     46 H042        23.4160   -25.1520    -1.4450 h1         1 XOQ       0.058033
     47 H043        24.6840   -26.0620    -0.5740 h1         1 XOQ       0.058033
     48 H072        27.2940   -21.0500    -0.3930 hc         1 XOQ       0.044033
     49 H071        28.6570   -21.8070    -1.2350 hc         1 XOQ       0.044033
     50 H073        27.5300   -20.7670    -2.1240 hc         1 XOQ       0.044033
     51 H091        27.9250   -24.2090    -4.5320 hc         1 XOQ       0.053200
     52 H092        28.7040   -22.9110    -3.6640 hc         1 XOQ       0.053200
     53 H262        23.7760   -21.9630    -2.2600 h1         1 XOQ       0.059450
     54 H261        23.0000   -22.3290    -0.7290 h1         1 XOQ       0.059450
     55 H271        21.0230   -25.3510    -3.3330 ha         1 XOQ       0.108000
     56 H241        20.9030   -20.8510    -0.1330 hn         1 XOQ       0.398000
     57 C01         25.4570   -25.5740    -3.6610 c3         1 XOQ      -0.035800
     58 C04         24.2860   -25.0630    -0.7860 c3         1 XOQ       0.069900
@<TRIPOS>BOND
     1     1    18 1   
     2     1    27 1   
     3     1    28 1   
     4     1    29 1   
     5     2     3 ar  
     6     2    19 ar  
     7     2    30 1   
     8     3     4 ar  
     9     3    31 1   
    10     4    25 ar  
    11     4    32 1   
    12     5    19 ar  
    13     5    20 1   
    14     5    25 ar  
    15     6     7 ar  
    16     6    20 ar  
    17     6    33 1   
    18     7     8 1   
    19     7    22 ar  
    20     8     9 1   
    21     8    21 1   
    22     9    10 1   
    23     9    34 1   
    24     9    35 1   
    25    10    26 1   
    26    10    36 1   
    27    10    37 1   
    28    11    21 1   
    29    11    26 1   
    30    11    38 1   
    31    11    39 1   
    32    12    13 ar  
    33    12    22 ar  
    34    12    40 1   
    35    13    20 ar  
    36    13    41 1   
    37    14    17 2   
    38    14    23 1   
    39    14    57 1   
    40    15    16 1   
    41    15    17 1   
    42    15    24 2   
    43    16    48 1   
    44    16    49 1   
    45    16    50 1   
    46    17    18 1   
    47    18    51 1   
    48    18    52 1   
    49    19    27 1   
    50    21    53 1   
    51    21    54 1   
    52    22    55 1   
    53    23    24 1   
    54    23    58 1   
    55    26    56 1   
    56    42    57 1   
    57    43    57 1   
    58    44    57 1   
    59    45    58 1   
    60    46    58 1   
    61    47    58 1   
@<TRIPOS>SUBSTRUCTURE
     1 XOQ         1 TEMP              0 ****  ****    0 ROOT
