@<TRIPOS>MOLECULE
XOR
   46    49     1     0     0
SMALL
abcg2


@<TRIPOS>ATOM
      1 C2         -29.2700    -8.2290   -15.0850 c3         1 XOR       0.148600
      2 C3         -30.7060    -8.6980   -15.2120 c6         1 XOR       0.140000
      3 C5         -30.7770   -10.1070   -15.7860 c6         1 XOR       0.116800
      4 C7         -30.8250    -9.0760   -17.8920 c2         1 XOR       0.828500
      5 C11        -30.3050    -7.3550   -22.4170 ca         1 XOR       0.233500
      6 C15        -32.1430    -5.7320   -24.3870 ca         1 XOR       0.213100
      7 C16        -33.1290    -6.7020   -24.3690 ca         1 XOR      -0.258000
      8 C17        -33.9060    -6.9070   -25.5140 ca         1 XOR       0.389900
      9 C19        -32.8120    -5.3260   -26.6360 ca         1 XOR       0.385500
     10 C21        -31.4170    -3.7430   -27.3350 cc         1 XOR      -0.090100
     11 C23        -31.9530    -5.0120   -25.5650 ca         1 XOR      -0.118800
     12 C30        -31.7820    -7.1040   -20.0970 ca         1 XOR      -0.221000
     13 C32        -31.5730    -7.8040   -16.0860 c6         1 XOR       0.147600
     14 F25        -30.3450    -2.6610   -24.2460 f          1 XOR      -0.114000
     15 F26        -29.0500    -4.2550   -24.8660 f          1 XOR      -0.114000
     16 F27        -29.2800    -2.5130   -26.1130 f          1 XOR      -0.114000
     17 C22        -31.0630    -3.9990   -26.0390 cd         1 XOR      -0.246400
     18 N20        -32.4620    -4.5310   -27.6860 na         1 XOR      -0.311400
     19 N18        -33.7730    -6.2370   -26.6460 nb         1 XOR      -0.693000
     20 C13        -31.2190    -6.3180   -22.3240 ca         1 XOR      -0.037900
     21 C28        -31.9410    -6.2230   -21.1470 ca         1 XOR       0.233500
     22 F29        -32.8440    -5.2470   -21.0450 f          1 XOR      -0.150000
     23 F12        -29.6030    -7.4660   -23.5450 f          1 XOR      -0.150000
     24 C10        -30.0980    -8.2480   -21.3940 ca         1 XOR      -0.221000
     25 C9         -30.8420    -8.1310   -20.2140 ca         1 XOR       0.392000
     26 N8         -30.6250    -9.1010   -19.2490 nu         1 XOR      -0.916200
     27 O31        -31.1000    -7.8530   -17.4270 os         1 XOR      -0.462600
     28 O1         -29.2460    -6.8800   -14.7000 oh         1 XOR      -0.652000
     29 F4         -31.2810    -8.6930   -13.9400 f          1 XOR      -0.244000
     30 N6         -30.6980   -10.1450   -17.2260 n2         1 XOR      -0.739900
     31 H1         -28.7750    -8.8780   -14.3500 h1         1 XOR       0.037200
     32 H2         -28.7540    -8.3970   -16.0390 h1         1 XOR       0.037200
     33 H3         -31.7150   -10.5690   -15.4600 h1         1 XOR       0.076700
     34 H4         -29.9740   -10.7270   -15.3750 h1         1 XOR       0.076700
     35 H5         -33.3230    -7.3060   -23.4920 ha         1 XOR       0.134000
     36 H6         -34.6800    -7.6640   -25.4890 h4         1 XOR       0.023100
     37 H7         -30.9910    -3.0500   -28.0420 h4         1 XOR       0.232000
     38 H8         -32.4080    -6.9890   -19.2260 ha         1 XOR       0.148500
     39 H9         -31.5390    -6.7600   -15.7840 h1         1 XOR       0.085200
     40 H10        -32.6120    -8.1460   -16.0470 h1         1 XOR       0.085200
     41 H11        -32.9040    -4.5400   -28.5920 hn         1 XOR       0.369000
     42 H12        -29.3580    -9.0300   -21.5100 ha         1 XOR       0.148500
     43 H13        -30.1780    -9.9480   -19.5650 hn         1 XOR       0.523000
     44 H14        -28.3310    -6.5890   -14.6690 ho         1 XOR       0.455000
     45 O14        -31.3540    -5.4130   -23.3350 os         1 XOR      -0.196200
     46 C24        -29.9460    -3.3620   -25.3180 c3         1 XOR       0.390200
@<TRIPOS>BOND
     1     1     2 1   
     2     1    28 1   
     3     1    31 1   
     4     1    32 1   
     5     2     3 1   
     6     2    13 1   
     7     2    29 1   
     8     3    30 1   
     9     3    33 1   
    10     3    34 1   
    11     4    26 1   
    12     4    27 1   
    13     4    30 2   
    14     5    20 ar  
    15     5    23 1   
    16     5    24 ar  
    17     6     7 ar  
    18     6    11 ar  
    19     6    45 1   
    20     7     8 ar  
    21     7    35 1   
    22     8    19 ar  
    23     8    36 1   
    24     9    11 ar  
    25     9    18 1   
    26     9    19 ar  
    27    10    17 2   
    28    10    18 1   
    29    10    37 1   
    30    11    17 1   
    31    12    21 ar  
    32    12    25 ar  
    33    12    38 1   
    34    13    27 1   
    35    13    39 1   
    36    13    40 1   
    37    14    46 1   
    38    15    46 1   
    39    16    46 1   
    40    17    46 1   
    41    18    41 1   
    42    20    21 ar  
    43    20    45 1   
    44    21    22 1   
    45    24    25 ar  
    46    24    42 1   
    47    25    26 1   
    48    26    43 1   
    49    28    44 1   
@<TRIPOS>SUBSTRUCTURE
     1 XOR         1 TEMP              0 ****  ****    0 ROOT
