@<TRIPOS>MOLECULE
XOR
   46    49     1     0     0
SMALL
No Charge or Current Charge


@<TRIPOS>ATOM
      1 C2         -31.4890    -7.0330   -14.6030 c3         1 XOR       0.148600
      2 C3         -30.3420    -7.9520   -15.1430 c6         1 XOR       0.140000
      3 C5         -29.6360    -7.3470   -16.3870 c6         1 XOR       0.116800
      4 C7         -31.2160    -8.5340   -17.7680 c2         1 XOR       0.828500
      5 C11        -31.3180    -8.8420   -22.5670 ca         1 XOR       0.233500
      6 C15        -31.8250    -6.1450   -24.7880 ca         1 XOR       0.213100
      7 C16        -33.1990    -6.0600   -24.5020 ca         1 XOR      -0.258000
      8 C17        -33.9830    -5.1200   -25.1960 ca         1 XOR       0.389900
      9 C19        -32.1640    -4.3900   -26.4050 ca         1 XOR       0.385500
     10 C21        -30.0500    -4.0830   -27.2820 cc         1 XOR      -0.090100
     11 C23        -31.3280    -5.2790   -25.7720 ca         1 XOR      -0.118800
     12 C30        -31.5400    -6.9870   -20.4830 ca         1 XOR      -0.221000
     13 C32        -30.8320    -9.3640   -15.5310 c6         1 XOR       0.147600
     14 F25        -28.4510    -5.6760   -24.6120 f          1 XOR      -0.114000
     15 F26        -28.8510    -7.1650   -26.1520 f          1 XOR      -0.114000
     16 F27        -27.6530    -5.4140   -26.6140 f          1 XOR      -0.114000
     17 C22        -29.9930    -5.0860   -26.3220 cd         1 XOR      -0.246400
     18 N20        -31.4010    -3.6800   -27.3050 na         1 XOR      -0.311400
     19 N18        -33.4790    -4.2880   -26.1410 nb         1 XOR      -0.693000
     20 C13        -31.2240    -7.4680   -22.8530 ca         1 XOR      -0.037900
     21 C28        -31.3290    -6.5420   -21.7950 ca         1 XOR       0.233500
     22 F29        -31.2180    -5.2140   -22.0280 f          1 XOR      -0.150000
     23 F12        -31.2140    -9.7510   -23.5630 f          1 XOR      -0.150000
     24 C10        -31.5300    -9.2840   -21.2540 ca         1 XOR      -0.221000
     25 C9         -31.6320    -8.3570   -20.2100 ca         1 XOR       0.392000
     26 N8         -31.8570    -8.8120   -18.9230 nu         1 XOR      -0.916200
     27 O31        -31.6400    -9.3030   -16.7290 os         1 XOR      -0.462600
     28 O1         -32.1300    -7.5550   -13.4230 oh         1 XOR      -0.652000
     29 F4         -29.3740    -8.0870   -14.1220 f          1 XOR      -0.244000
     30 N6         -30.3030    -7.6380   -17.6850 n2         1 XOR      -0.739900
     31 H1         -31.0610    -6.0440   -14.3890 h1         1 XOR       0.037200
     32 H2         -32.2300    -6.8980   -15.4020 h1         1 XOR       0.037200
     33 H3         -28.6070    -7.7330   -16.4410 h1         1 XOR       0.076700
     34 H4         -29.5590    -6.2560   -16.2630 h1         1 XOR       0.076700
     35 H5         -33.6630    -6.7060   -23.7640 ha         1 XOR       0.134000
     36 H6         -35.0490    -5.0330   -24.9930 h4         1 XOR       0.023100
     37 H7         -29.2810    -3.6450   -27.9160 h4         1 XOR       0.232000
     38 H8         -31.6280    -6.2640   -19.6800 ha         1 XOR       0.148500
     39 H9         -31.4150    -9.8160   -14.7170 h1         1 XOR       0.085200
     40 H10        -29.9640   -10.0100   -15.7250 h1         1 XOR       0.085200
     41 H11        -31.7860    -2.9580   -27.9010 hn         1 XOR       0.369000
     42 H12        -31.6040   -10.3480   -21.0530 ha         1 XOR       0.148500
     43 H13        -32.3130    -9.7140   -18.8620 hn         1 XOR       0.523000
     44 H14        -32.8020    -6.8940   -13.1410 ho         1 XOR       0.455000
     45 O14        -31.0080    -7.0530   -24.1520 os         1 XOR      -0.196200
     46 C24        -28.7370    -5.8370   -25.9230 c3         1 XOR       0.390200
@<TRIPOS>BOND
     1     1     2 1   
     2     1    28 1   
     3     1    31 1   
     4     1    32 1   
     5     2     3 1   
     6     2    13 1   
     7     2    29 1   
     8     3    30 1   
     9     3    33 1   
    10     3    34 1   
    11     4    26 1   
    12     4    27 1   
    13     4    30 2   
    14     5    20 ar  
    15     5    23 1   
    16     5    24 ar  
    17     6     7 ar  
    18     6    11 ar  
    19     6    45 1   
    20     7     8 ar  
    21     7    35 1   
    22     8    19 ar  
    23     8    36 1   
    24     9    11 ar  
    25     9    18 1   
    26     9    19 ar  
    27    10    17 2   
    28    10    18 1   
    29    10    37 1   
    30    11    17 1   
    31    12    21 ar  
    32    12    25 ar  
    33    12    38 1   
    34    13    27 1   
    35    13    39 1   
    36    13    40 1   
    37    14    46 1   
    38    15    46 1   
    39    16    46 1   
    40    17    46 1   
    41    18    41 1   
    42    20    21 ar  
    43    20    45 1   
    44    21    22 1   
    45    24    25 ar  
    46    24    42 1   
    47    25    26 1   
    48    26    43 1   
    49    28    44 1   
@<TRIPOS>SUBSTRUCTURE
     1 XOR         1 TEMP              0 ****  ****    0 ROOT
