@<TRIPOS>MOLECULE
XOS
   29    30     1     0     0
SMALL
No Charge or Current Charge


@<TRIPOS>ATOM
      1 C01         -4.0140    -1.3640     0.0080 ca         1 XOS      -0.069000
      2 C02         -3.7360     0.0200     0.0800 ca         1 XOS      -0.151600
      3 C03         -2.3840     0.4390     0.0540 ca         1 XOS      -0.062000
      4 C04         -1.3280    -0.4920    -0.0400 ca         1 XOS      -0.116800
      5 C05         -1.6330    -1.8660    -0.1110 ca         1 XOS      -0.112000
      6 C06         -2.9690    -2.2970    -0.0870 ca         1 XOS      -0.154000
      7 C07          0.0820     0.0050    -0.0640 ce         1 XOS      -0.083200
      8 C08          1.2460    -0.7070    -0.0410 cf         1 XOS      -0.226200
      9 C09          2.6450    -0.2280    -0.0630 ca         1 XOS      -0.045800
     10 C10          3.6940    -1.1700    -0.0250 ca         1 XOS      -0.078000
     11 C11          5.0370    -0.7500    -0.0450 ca         1 XOS      -0.173500
     12 C12          5.3420     0.6180    -0.1040 ca         1 XOS       0.114100
     13 C13          4.3090     1.5630    -0.1440 ca         1 XOS      -0.173500
     14 C14          2.9650     1.1460    -0.1240 ca         1 XOS      -0.078000
     15 C15         -4.8630     1.0340     0.1820 c          1 XOS       0.719600
     16 O01          6.6390     1.0320    -0.1240 oh         1 XOS      -0.542100
     17 O02         -4.5790     2.2220     0.2390 o          1 XOS      -0.717000
     18 O03         -6.0160     0.6270     0.2030 o          1 XOS      -0.717000
     19 H1          -5.0410    -1.7220     0.0260 ha         1 XOS       0.129000
     20 H2          -2.1500     1.5010     0.1080 ha         1 XOS       0.128000
     21 H3          -0.8470    -2.6110    -0.1910 ha         1 XOS       0.085000
     22 H4          -3.1960    -3.3580    -0.1430 ha         1 XOS       0.086000
     23 H5           0.1510     1.0920    -0.1020 ha         1 XOS       0.165000
     24 H6           1.1640    -1.7920     0.0060 ha         1 XOS       0.167000
     25 H7           3.4720    -2.2340     0.0220 ha         1 XOS       0.114000
     26 H8           5.8310    -1.4920    -0.0140 ha         1 XOS       0.111500
     27 H9           4.5450     2.6230    -0.1900 ha         1 XOS       0.111500
     28 H10          2.1850     1.9000    -0.1550 ha         1 XOS       0.114000
     29 H11          7.2180     0.2400    -0.0910 ho         1 XOS       0.455000
@<TRIPOS>BOND
     1     1     2 ar  
     2     1     6 ar  
     3     1    19 1   
     4     2     3 ar  
     5     2    15 1   
     6     3     4 ar  
     7     3    20 1   
     8     4     5 ar  
     9     4     7 1   
    10     5     6 ar  
    11     5    21 1   
    12     6    22 1   
    13     7     8 2   
    14     7    23 1   
    15     8     9 1   
    16     8    24 1   
    17     9    10 ar  
    18     9    14 ar  
    19    10    11 ar  
    20    10    25 1   
    21    11    12 ar  
    22    11    26 1   
    23    12    13 ar  
    24    12    16 1   
    25    13    14 ar  
    26    13    27 1   
    27    14    28 1   
    28    15    17 1   
    29    15    18 1   
    30    16    29 1   
@<TRIPOS>SUBSTRUCTURE
     1 XOS         1 TEMP              0 ****  ****    0 ROOT
