@<TRIPOS>MOLECULE
XOS
   29    30     1     0     0
SMALL
bcc


@<TRIPOS>ATOM
      1 C01         -3.9510    -1.3450     0.0030 ca         1 XOS      -0.087000
      2 C02         -3.6630     0.0150     0.0640 ca         1 XOS      -0.151600
      3 C03         -2.3310     0.4150     0.0500 ca         1 XOS      -0.080000
      4 C04         -1.2800    -0.5040    -0.0190 ca         1 XOS      -0.116800
      5 C05         -1.5990    -1.8660    -0.0790 ca         1 XOS      -0.130000
      6 C06         -2.9210    -2.2760    -0.0680 ca         1 XOS      -0.172000
      7 C07          0.0930    -0.0000    -0.0290 ce         1 XOS      -0.033200
      8 C08          1.2140    -0.7330    -0.0380 cf         1 XOS      -0.176200
      9 C09          2.5870    -0.2380    -0.0570 ca         1 XOS      -0.045800
     10 C10          3.6370    -1.1570    -0.0420 ca         1 XOS      -0.096000
     11 C11          4.9620    -0.7550    -0.0730 ca         1 XOS      -0.191500
     12 C12          5.2740     0.5980    -0.1250 ca         1 XOS       0.114100
     13 C13          4.2440     1.5360    -0.1280 ca         1 XOS      -0.191500
     14 C14          2.9280     1.1200    -0.0960 ca         1 XOS      -0.096000
     15 C15         -4.7880     1.0540     0.1430 c          1 XOS       0.930200
     16 O01          6.5410     1.0570    -0.1800 oh         1 XOS      -0.503100
     17 O02         -4.4280     2.2420     0.2080 o          1 XOS      -0.822300
     18 O03         -5.9440     0.6020     0.1410 o          1 XOS      -0.822300
     19 H1          -4.9860    -1.6640     0.0100 ha         1 XOS       0.147000
     20 H2          -2.1180     1.4770     0.0950 ha         1 XOS       0.146000
     21 H3          -0.8190    -2.6140    -0.1370 ha         1 XOS       0.103000
     22 H4          -3.1480    -3.3340    -0.1170 ha         1 XOS       0.104000
     23 H5           0.1710     1.0830    -0.0230 ha         1 XOS       0.115000
     24 H6           1.1320    -1.8160    -0.0310 ha         1 XOS       0.117000
     25 H7           3.4210    -2.2170    -0.0070 ha         1 XOS       0.132000
     26 H8           5.7450    -1.5040    -0.0640 ha         1 XOS       0.129500
     27 H9           4.4790     2.5920    -0.1620 ha         1 XOS       0.129500
     28 H10          2.1550     1.8770    -0.1060 ha         1 XOS       0.132000
     29 H11          7.1620     0.3330    -0.0650 ho         1 XOS       0.416000
@<TRIPOS>BOND
     1     1     2 ar  
     2     1     6 ar  
     3     1    19 1   
     4     2     3 ar  
     5     2    15 1   
     6     3     4 ar  
     7     3    20 1   
     8     4     5 ar  
     9     4     7 1   
    10     5     6 ar  
    11     5    21 1   
    12     6    22 1   
    13     7     8 2   
    14     7    23 1   
    15     8     9 1   
    16     8    24 1   
    17     9    10 ar  
    18     9    14 ar  
    19    10    11 ar  
    20    10    25 1   
    21    11    12 ar  
    22    11    26 1   
    23    12    13 ar  
    24    12    16 1   
    25    13    14 ar  
    26    13    27 1   
    27    14    28 1   
    28    15    17 1   
    29    15    18 1   
    30    16    29 1   
@<TRIPOS>SUBSTRUCTURE
     1 XOS         1 TEMP              0 ****  ****    0 ROOT
