@<TRIPOS>MOLECULE
XOU
   68    71     1     0     0
SMALL
bcc


@<TRIPOS>ATOM
      1 N1          54.1590   -40.9500   -38.1480 n          1 XOU      -0.533400
      2 N2          54.8510   -43.2060   -38.2890 ns         1 XOU      -0.522900
      3 C1          51.3160   -35.0620   -41.1860 ca         1 XOU      -0.117000
      4 C2          50.7300   -33.9430   -41.7580 ca         1 XOU      -0.131500
      5 C3          49.6060   -34.0760   -42.5620 ca         1 XOU      -0.131000
      6 C4          49.0720   -35.3370   -42.7890 ca         1 XOU      -0.131500
      7 C5          49.6570   -36.4560   -42.2160 ca         1 XOU      -0.117000
      8 C6          50.7880   -36.3360   -41.4060 cp         1 XOU      -0.028000
      9 C7          51.4090   -37.5280   -40.7960 cp         1 XOU      -0.030000
     10 C8          50.6250   -38.5780   -40.3170 ca         1 XOU      -0.128500
     11 C9          51.2060   -39.7040   -39.7590 ca         1 XOU      -0.092000
     12 O1          52.8370   -42.1100   -39.6130 o          1 XOU      -0.537100
     13 O2          56.0650   -41.6860   -37.1500 o          1 XOU      -0.666100
     14 C10         52.5880   -39.7890   -39.6330 ca         1 XOU      -0.132600
     15 C11         53.3810   -38.7470   -40.1050 ca         1 XOU      -0.092000
     16 C12         52.7970   -37.6360   -40.6880 ca         1 XOU      -0.128500
     17 C13         53.1930   -41.0530   -39.1200 c          1 XOU       0.678700
     18 C14         54.2000   -39.8030   -37.2280 c3         1 XOU       0.159300
     19 C15         53.6730   -40.1760   -35.8660 ca         1 XOU      -0.108300
     20 C16         52.3240   -40.4830   -35.7010 ca         1 XOU      -0.103000
     21 C17         51.8200   -40.8260   -34.4580 ca         1 XOU      -0.134500
     22 C18         52.6470   -40.8680   -33.3350 ca         1 XOU      -0.073300
     23 C19         52.0920   -41.2490   -31.9940 c3         1 XOU      -0.046800
     24 C20         53.9910   -40.5530   -33.5020 ca         1 XOU      -0.134500
     25 C21         54.4990   -40.2150   -34.7520 ca         1 XOU      -0.103000
     26 C22         55.0950   -41.9810   -37.8290 c          1 XOU       0.768100
     27 C23         55.7310   -44.3220   -38.0440 c3         1 XOU      -0.040300
     28 C24         55.3310   -45.5020   -38.9730 c          1 XOU       0.937600
     29 C25         55.7190   -44.7710   -36.5860 c3         1 XOU       0.032700
     30 C26         53.1840   -43.9540   -35.5730 c3         1 XOU       0.053000
     31 C27         51.9500   -44.3950   -34.8490 ca         1 XOU      -0.043300
     32 C28         51.9930   -44.7130   -33.4930 ca         1 XOU      -0.115000
     33 C29         50.8540   -45.1450   -32.8310 ca         1 XOU      -0.139000
     34 C30         49.6540   -45.2770   -33.5210 ca         1 XOU      -0.144000
     35 C31         49.6030   -44.9710   -34.8740 ca         1 XOU      -0.139000
     36 C32         50.7460   -44.5350   -35.5320 ca         1 XOU      -0.115000
     37 O3          56.0370   -46.5180   -38.8650 o          1 XOU      -0.813800
     38 O4          54.3510   -45.3250   -39.7200 o          1 XOU      -0.813800
     39 S1          54.1330   -45.4500   -36.0200 ss         1 XOU      -0.339200
     40 H1          54.0530   -43.3910   -38.8840 hn         1 XOU       0.381500
     41 H4          49.1490   -33.2020   -43.0090 ha         1 XOU       0.125000
     42 H5          48.2000   -35.4530   -43.4210 ha         1 XOU       0.127000
     43 H6          49.2390   -37.4350   -42.4190 ha         1 XOU       0.134500
     44 H7          49.5450   -38.5140   -40.3680 ha         1 XOU       0.131000
     45 H8          50.5770   -40.5080   -39.4000 ha         1 XOU       0.147000
     46 H9          54.4600   -38.8070   -40.0360 ha         1 XOU       0.147000
     47 H10         53.4340   -36.8530   -41.0790 ha         1 XOU       0.131000
     48 H11         55.2120   -39.4130   -37.1660 h1         1 XOU       0.059700
     49 H12         53.5820   -39.0120   -37.6420 h1         1 XOU       0.059700
     50 H13         51.6520   -40.4520   -36.5530 ha         1 XOU       0.134000
     51 H14         50.7680   -41.0660   -34.3570 ha         1 XOU       0.126000
     52 H15         51.7200   -42.2750   -32.0030 hc         1 XOU       0.039367
     53 H16         52.8460   -41.1760   -31.2120 hc         1 XOU       0.039367
     54 H17         51.2550   -40.6090   -31.7130 hc         1 XOU       0.039367
     55 H18         54.6550   -40.5730   -32.6470 ha         1 XOU       0.126000
     56 H19         55.5500   -39.9770   -34.8550 ha         1 XOU       0.134000
     57 H20         56.7630   -44.0380   -38.2840 h1         1 XOU       0.054700
     58 H21         56.4450   -45.5730   -36.4570 h1         1 XOU       0.068200
     59 H22         56.0120   -43.9630   -35.9150 h1         1 XOU       0.068200
     60 H23         53.8080   -43.3160   -34.9450 h1         1 XOU       0.067200
     61 H24         52.9170   -43.3950   -36.4670 h1         1 XOU       0.067200
     62 H25         52.9270   -44.6130   -32.9510 ha         1 XOU       0.137500
     63 H26         50.9010   -45.3810   -31.7760 ha         1 XOU       0.118500
     64 H27         48.7640   -45.6150   -33.0050 ha         1 XOU       0.115000
     65 H28         48.6730   -45.0710   -35.4190 ha         1 XOU       0.118500
     66 H29         50.7000   -44.2950   -36.5890 ha         1 XOU       0.137500
     67 H2          52.1810   -34.9390   -40.5460 ha         1 XOU       0.134500
     68 H3          51.1500   -32.9640   -41.5690 ha         1 XOU       0.127000
@<TRIPOS>BOND
     1     1    17 1   
     2     1    18 1   
     3     1    26 1   
     4     2    26 1   
     5     2    27 1   
     6     2    40 1   
     7     3     4 ar  
     8     3     8 ar  
     9     3    67 1   
    10     4     5 ar  
    11     4    68 1   
    12     5     6 ar  
    13     5    41 1   
    14     6     7 ar  
    15     6    42 1   
    16     7     8 ar  
    17     7    43 1   
    18     8     9 1   
    19     9    10 ar  
    20     9    16 ar  
    21    10    11 ar  
    22    10    44 1   
    23    11    14 ar  
    24    11    45 1   
    25    12    17 2   
    26    13    26 2   
    27    14    15 ar  
    28    14    17 1   
    29    15    16 ar  
    30    15    46 1   
    31    16    47 1   
    32    18    19 1   
    33    18    48 1   
    34    18    49 1   
    35    19    20 ar  
    36    19    25 ar  
    37    20    21 ar  
    38    20    50 1   
    39    21    22 ar  
    40    21    51 1   
    41    22    23 1   
    42    22    24 ar  
    43    23    52 1   
    44    23    53 1   
    45    23    54 1   
    46    24    25 ar  
    47    24    55 1   
    48    25    56 1   
    49    27    28 1   
    50    27    29 1   
    51    27    57 1   
    52    28    37 1   
    53    28    38 1   
    54    29    39 1   
    55    29    58 1   
    56    29    59 1   
    57    30    31 1   
    58    30    39 1   
    59    30    60 1   
    60    30    61 1   
    61    31    32 ar  
    62    31    36 ar  
    63    32    33 ar  
    64    32    62 1   
    65    33    34 ar  
    66    33    63 1   
    67    34    35 ar  
    68    34    64 1   
    69    35    36 ar  
    70    35    65 1   
    71    36    66 1   
@<TRIPOS>SUBSTRUCTURE
     1 XOU         1 TEMP              0 ****  ****    0 ROOT
