@<TRIPOS>MOLECULE
XOU
   68    71     1     0     0
SMALL
No Charge or Current Charge


@<TRIPOS>ATOM
      1 N1          54.2650   -40.9910   -37.9610 n          1 XOU      -0.399400
      2 N2          55.0960   -43.1510   -38.4680 ns         1 XOU      -0.455900
      3 C1          51.1620   -35.2230   -41.2070 ca         1 XOU      -0.099000
      4 C2          50.5760   -34.1190   -41.8500 ca         1 XOU      -0.113500
      5 C3          49.4720   -34.3020   -42.6970 ca         1 XOU      -0.113000
      6 C4          48.9530   -35.5910   -42.9000 ca         1 XOU      -0.113500
      7 C5          49.5390   -36.6950   -42.2560 ca         1 XOU      -0.099000
      8 C6          50.6560   -36.5350   -41.3960 cp         1 XOU      -0.028000
      9 C7          51.2810   -37.7110   -40.7090 cp         1 XOU      -0.030000
     10 C8          50.4980   -38.8070   -40.2700 ca         1 XOU      -0.110500
     11 C9          51.0830   -39.9100   -39.6260 ca         1 XOU      -0.074000
     12 O1          52.5930   -42.2650   -38.8980 o          1 XOU      -0.537100
     13 O2          56.2620   -41.7750   -37.1150 o          1 XOU      -0.666100
     14 C10         52.4720   -39.9480   -39.3830 ca         1 XOU      -0.132600
     15 C11         53.2670   -38.8730   -39.8400 ca         1 XOU      -0.074000
     16 C12         52.6780   -37.7720   -40.4840 ca         1 XOU      -0.110500
     17 C13         53.0790   -41.1590   -38.7060 c          1 XOU       0.611700
     18 C14         54.2880   -39.8590   -36.9940 c3         1 XOU       0.159300
     19 C15         53.6230   -40.2310   -35.6740 ca         1 XOU      -0.108300
     20 C16         52.2210   -40.1930   -35.5530 ca         1 XOU      -0.085000
     21 C17         51.6010   -40.5760   -34.3520 ca         1 XOU      -0.116500
     22 C18         52.3750   -41.0040   -33.2580 ca         1 XOU      -0.073300
     23 C19         51.7040   -41.4360   -31.9640 c3         1 XOU      -0.046800
     24 C20         53.7770   -41.0320   -33.3740 ca         1 XOU      -0.116500
     25 C21         54.3980   -40.6480   -34.5750 ca         1 XOU      -0.085000
     26 C22         55.2700   -41.9640   -37.8030 c          1 XOU       0.634100
     27 C23         55.9440   -44.3610   -38.3250 c3         1 XOU      -0.040300
     28 C24         55.6210   -45.4170   -39.4250 c          1 XOU       0.727000
     29 C25         55.8680   -44.9840   -36.9060 c3         1 XOU       0.080600
     30 C26         53.6400   -43.9760   -35.4310 c3         1 XOU       0.100900
     31 C27         52.2450   -44.1380   -34.8500 ca         1 XOU      -0.043300
     32 C28         52.0660   -44.7000   -33.5710 ca         1 XOU      -0.097000
     33 C29         50.7760   -44.8260   -33.0270 ca         1 XOU      -0.121000
     34 C30         49.6580   -44.3900   -33.7580 ca         1 XOU      -0.126000
     35 C31         49.8310   -43.8300   -35.0350 ca         1 XOU      -0.121000
     36 C32         51.1200   -43.7060   -35.5800 ca         1 XOU      -0.097000
     37 O3          56.4450   -46.2990   -39.6280 o          1 XOU      -0.708500
     38 O4          54.6200   -45.2650   -40.1150 o          1 XOU      -0.708500
     39 S1          54.1390   -45.4630   -36.4190 ss         1 XOU      -0.435000
     40 H1          54.2230   -43.2480   -38.9810 hn         1 XOU       0.381500
     41 H4          49.0180   -33.4480   -43.1950 ha         1 XOU       0.107000
     42 H5          48.1000   -35.7360   -43.5580 ha         1 XOU       0.109000
     43 H6          49.1300   -37.6860   -42.4370 ha         1 XOU       0.116500
     44 H7          49.4210   -38.7990   -40.4190 ha         1 XOU       0.113000
     45 H8          50.4490   -40.7340   -39.3010 ha         1 XOU       0.129000
     46 H9          54.3480   -38.8920   -39.7110 ha         1 XOU       0.129000
     47 H10         53.3180   -36.9640   -40.8300 ha         1 XOU       0.113000
     48 H11         55.3210   -39.5370   -36.8130 h1         1 XOU       0.059700
     49 H12         53.7680   -38.9820   -37.3940 h1         1 XOU       0.059700
     50 H13         51.6070   -39.8740   -36.3930 ha         1 XOU       0.116000
     51 H14         50.5170   -40.5500   -34.2750 ha         1 XOU       0.108000
     52 H15         50.6830   -41.7920   -32.1420 hc         1 XOU       0.039367
     53 H16         52.2560   -42.2510   -31.4820 hc         1 XOU       0.039367
     54 H17         51.6500   -40.6010   -31.2540 hc         1 XOU       0.039367
     55 H18         54.3870   -41.3600   -32.5350 ha         1 XOU       0.108000
     56 H19         55.4830   -40.6860   -34.6530 ha         1 XOU       0.116000
     57 H20         56.9830   -44.0540   -38.4970 h1         1 XOU       0.054700
     58 H21         56.4990   -45.8830   -36.8790 h1         1 XOU       0.068200
     59 H22         56.2700   -44.2800   -36.1660 h1         1 XOU       0.068200
     60 H23         54.3630   -43.8190   -34.6200 h1         1 XOU       0.067200
     61 H24         53.6560   -43.0900   -36.0730 h1         1 XOU       0.067200
     62 H25         52.9280   -45.0350   -32.9980 ha         1 XOU       0.119500
     63 H26         50.6440   -45.2590   -32.0370 ha         1 XOU       0.100500
     64 H27         48.6610   -44.4850   -33.3350 ha         1 XOU       0.097000
     65 H28         48.9660   -43.4910   -35.6010 ha         1 XOU       0.100500
     66 H29         51.2480   -43.2680   -36.5670 ha         1 XOU       0.119500
     67 H2          52.0080   -35.0570   -40.5450 ha         1 XOU       0.116500
     68 H3          50.9770   -33.1210   -41.6890 ha         1 XOU       0.109000
@<TRIPOS>BOND
     1     1    17 1   
     2     1    18 1   
     3     1    26 1   
     4     2    26 1   
     5     2    27 1   
     6     2    40 1   
     7     3     4 ar  
     8     3     8 ar  
     9     3    67 1   
    10     4     5 ar  
    11     4    68 1   
    12     5     6 ar  
    13     5    41 1   
    14     6     7 ar  
    15     6    42 1   
    16     7     8 ar  
    17     7    43 1   
    18     8     9 1   
    19     9    10 ar  
    20     9    16 ar  
    21    10    11 ar  
    22    10    44 1   
    23    11    14 ar  
    24    11    45 1   
    25    12    17 2   
    26    13    26 2   
    27    14    15 ar  
    28    14    17 1   
    29    15    16 ar  
    30    15    46 1   
    31    16    47 1   
    32    18    19 1   
    33    18    48 1   
    34    18    49 1   
    35    19    20 ar  
    36    19    25 ar  
    37    20    21 ar  
    38    20    50 1   
    39    21    22 ar  
    40    21    51 1   
    41    22    23 1   
    42    22    24 ar  
    43    23    52 1   
    44    23    53 1   
    45    23    54 1   
    46    24    25 ar  
    47    24    55 1   
    48    25    56 1   
    49    27    28 1   
    50    27    29 1   
    51    27    57 1   
    52    28    37 1   
    53    28    38 1   
    54    29    39 1   
    55    29    58 1   
    56    29    59 1   
    57    30    31 1   
    58    30    39 1   
    59    30    60 1   
    60    30    61 1   
    61    31    32 ar  
    62    31    36 ar  
    63    32    33 ar  
    64    32    62 1   
    65    33    34 ar  
    66    33    63 1   
    67    34    35 ar  
    68    34    64 1   
    69    35    36 ar  
    70    35    65 1   
    71    36    66 1   
@<TRIPOS>SUBSTRUCTURE
     1 XOU         1 TEMP              0 ****  ****    0 ROOT
