@<TRIPOS>MOLECULE
XOV
   49    52     1     0     0
SMALL
No Charge or Current Charge


@<TRIPOS>ATOM
      1 C4         -34.1250   -10.2970   -53.8480 ca         1 XOV       0.139100
      2 C5         -35.8130    -9.3960   -55.9160 ca         1 XOV       0.142000
      3 C6         -34.1710   -10.9810   -55.0840 ca         1 XOV       0.101000
      4 C7         -26.3540   -10.5180   -43.4540 c          1 XOV       0.692100
      5 C8         -28.5030   -10.3350   -48.6260 c          1 XOV       0.620100
      6 C10        -30.7050   -10.9320   -51.3700 c6         1 XOV      -0.096900
      7 C13        -30.9770   -11.0870   -48.4370 c6         1 XOV       0.097000
      8 C15        -28.1640    -9.3330   -44.2630 c5         1 XOV       0.156600
      9 C17        -32.1200   -10.9090   -50.7200 c6         1 XOV      -0.062700
     10 C1         -34.9350    -9.1530   -53.6570 ca         1 XOV      -0.170000
     11 C2         -35.7770    -8.7070   -54.6940 ca         1 XOV      -0.111000
     12 C3         -35.0140   -10.5300   -56.1150 ca         1 XOV      -0.109000
     13 C9         -32.0340   -10.3340   -49.2790 c6         1 XOV      -0.096900
     14 C11        -28.4400   -11.0220   -46.3550 cy         1 XOV      -0.079900
     15 C12        -27.2070    -9.3510   -46.7930 cy         1 XOV      -0.079900
     16 C14        -29.6870   -11.6640   -50.4630 c6         1 XOV       0.097000
     17 C16        -28.7020    -9.6980   -47.1720 cy         1 XOV      -0.168700
     18 C18        -27.5280   -10.1100   -45.4510 cy         1 XOV       0.056400
     19 C19        -33.1530   -10.1280   -51.5800 c3         1 XOV       0.167600
     20 N20        -26.4490   -10.7390   -44.7870 ns         1 XOV      -0.514900
     21 N21        -29.6460   -11.0390   -49.1110 n          1 XOV      -0.408800
     22 O23        -27.5440   -10.2690   -49.3880 o          1 XOV      -0.596100
     23 O24        -27.3810    -9.6940   -43.0900 os         1 XOV      -0.418100
     24 O25        -33.2820   -10.7720   -52.8590 os         1 XOV      -0.331100
     25 F26        -36.6230    -8.9630   -56.9070 f          1 XOV      -0.174000
     26 Cl27       -33.1740   -12.4100   -55.3600 cl         1 XOV      -0.175000
     27 H1         -30.3580    -9.9050   -51.5510 hc         1 XOV       0.055450
     28 H2         -30.7410   -11.4280   -52.3490 hc         1 XOV       0.055450
     29 H3         -31.2810   -12.1390   -48.3320 h1         1 XOV       0.057950
     30 H4         -30.9620   -10.6670   -47.4250 h1         1 XOV       0.057950
     31 H5         -28.1150    -8.2430   -44.3930 h1         1 XOV       0.067700
     32 H6         -29.2140    -9.5990   -44.0850 h1         1 XOV       0.067700
     33 H7         -32.4920   -11.9420   -50.6570 hc         1 XOV       0.065700
     34 H8         -34.9260    -8.6020   -52.7210 ha         1 XOV       0.123000
     35 H9         -36.4020    -7.8280   -54.5520 ha         1 XOV       0.135000
     36 H10        -35.0470   -11.0580   -57.0630 ha         1 XOV       0.149000
     37 H11        -31.7760    -9.2660   -49.3140 hc         1 XOV       0.055450
     38 H12        -33.0130   -10.4040   -48.7860 hc         1 XOV       0.055450
     39 H13        -29.3100   -11.4590   -45.8540 hc         1 XOV       0.073200
     40 H14        -27.8940   -11.8350   -46.8550 hc         1 XOV       0.073200
     41 H15        -26.3820    -9.8150   -47.3470 hc         1 XOV       0.073200
     42 H16        -26.9820    -8.2840   -46.6900 hc         1 XOV       0.073200
     43 H17        -29.9840   -12.7180   -50.3590 h1         1 XOV       0.057950
     44 H18        -28.7000   -11.6600   -50.9450 h1         1 XOV       0.057950
     45 H19        -29.5310    -9.0160   -46.9560 hc         1 XOV       0.070700
     46 H20        -32.8110    -9.0920   -51.6990 h1         1 XOV       0.038200
     47 H21        -34.1180   -10.1210   -51.0560 h1         1 XOV       0.038200
     48 H22        -25.7670   -11.3340   -45.2400 hn         1 XOV       0.342500
     49 O22        -25.5040   -10.9780   -42.7120 o          1 XOV      -0.524000
@<TRIPOS>BOND
     1     1     3 ar  
     2     1    10 ar  
     3     1    24 1   
     4     2    11 ar  
     5     2    12 ar  
     6     2    25 1   
     7     3    12 ar  
     8     3    26 1   
     9     4    20 1   
    10     4    23 1   
    11     4    49 2   
    12     5    17 1   
    13     5    21 1   
    14     5    22 2   
    15     6     9 1   
    16     6    16 1   
    17     6    27 1   
    18     6    28 1   
    19     7    13 1   
    20     7    21 1   
    21     7    29 1   
    22     7    30 1   
    23     8    18 1   
    24     8    23 1   
    25     8    31 1   
    26     8    32 1   
    27     9    13 1   
    28     9    19 1   
    29     9    33 1   
    30    10    11 ar  
    31    10    34 1   
    32    11    35 1   
    33    12    36 1   
    34    13    37 1   
    35    13    38 1   
    36    14    17 1   
    37    14    18 1   
    38    14    39 1   
    39    14    40 1   
    40    15    17 1   
    41    15    18 1   
    42    15    41 1   
    43    15    42 1   
    44    16    21 1   
    45    16    43 1   
    46    16    44 1   
    47    17    45 1   
    48    18    20 1   
    49    19    24 1   
    50    19    46 1   
    51    19    47 1   
    52    20    48 1   
@<TRIPOS>SUBSTRUCTURE
     1 XOV         1 TEMP              0 ****  ****    0 ROOT
