@<TRIPOS>MOLECULE
XOV
   49    52     1     0     0
SMALL
abcg2


@<TRIPOS>ATOM
      1 C4         -34.0800   -10.2000   -53.6540 ca         1 XOV       0.139100
      2 C5         -35.5440    -8.9340   -55.6430 ca         1 XOV       0.142000
      3 C6         -34.1130   -10.7010   -54.9590 ca         1 XOV       0.101000
      4 C7         -26.4040    -9.6390   -43.6150 c          1 XOV       0.692100
      5 C8         -28.5440   -10.7330   -48.8220 c          1 XOV       0.620100
      6 C10        -30.7620   -11.1750   -51.4240 c6         1 XOV      -0.096900
      7 C13        -30.9150   -11.4440   -48.5440 c6         1 XOV       0.097000
      8 C15        -28.3920    -9.1210   -44.5630 c5         1 XOV       0.156600
      9 C17        -32.1280   -11.1800   -50.7360 c6         1 XOV      -0.062700
     10 C1         -34.8170    -9.0530   -53.3740 ca         1 XOV      -0.170000
     11 C2         -35.5490    -8.4150   -54.3670 ca         1 XOV      -0.111000
     12 C3         -34.8370   -10.0790   -55.9590 ca         1 XOV      -0.109000
     13 C9         -31.9940   -10.6780   -49.2980 c6         1 XOV      -0.096900
     14 C11        -28.5450   -11.0950   -46.2150 cy         1 XOV      -0.079900
     15 C12        -27.3110    -9.4750   -46.9020 cy         1 XOV      -0.079900
     16 C14        -29.7270   -11.9250   -50.5960 c6         1 XOV       0.097000
     17 C16        -28.5910   -10.1380   -47.4320 cy         1 XOV      -0.168700
     18 C18        -27.6510   -10.0630   -45.5180 cy         1 XOV       0.056400
     19 C19        -33.1500   -10.3330   -51.4690 c3         1 XOV       0.167600
     20 N20        -26.5960   -10.4920   -44.6460 ns         1 XOV      -0.514900
     21 N21        -29.6490   -11.3790   -49.2520 n          1 XOV      -0.408800
     22 O23        -27.5310   -10.6390   -49.5040 o          1 XOV      -0.596100
     23 O24        -27.4160    -8.7540   -43.5880 os         1 XOV      -0.418100
     24 O25        -33.3330   -10.8720   -52.7690 os         1 XOV      -0.331100
     25 F26        -36.2370    -8.3180   -56.6130 f          1 XOV      -0.174000
     26 CL27       -33.2150   -12.1300   -55.3210 cl         1 XOV      -0.175000
     27 H1         -30.4270   -10.1430   -51.5710 hc         1 XOV       0.055450
     28 H2         -30.8250   -11.6360   -52.4110 hc         1 XOV       0.055450
     29 H3         -31.2030   -12.4960   -48.4490 h1         1 XOV       0.057950
     30 H4         -30.8180   -11.0560   -47.5350 h1         1 XOV       0.057950
     31 H5         -28.7690    -8.2220   -45.0480 h1         1 XOV       0.067700
     32 H6         -29.2190    -9.6320   -44.0620 h1         1 XOV       0.067700
     33 H7         -32.4950   -12.2130   -50.6990 hc         1 XOV       0.065700
     34 H8         -34.8300    -8.6360   -52.3760 ha         1 XOV       0.123000
     35 H9         -36.1150    -7.5220   -54.1370 ha         1 XOV       0.135000
     36 H10        -34.8450   -10.4770   -56.9650 ha         1 XOV       0.149000
     37 H11        -31.7440    -9.6120   -49.2940 hc         1 XOV       0.055450
     38 H12        -32.9420   -10.7870   -48.7670 hc         1 XOV       0.055450
     39 H13        -29.4810   -11.3670   -45.7260 hc         1 XOV       0.073200
     40 H14        -27.9880   -12.0050   -46.4500 hc         1 XOV       0.073200
     41 H15        -26.4190    -9.9450   -47.3160 hc         1 XOV       0.073200
     42 H16        -27.2180    -8.3920   -46.9860 hc         1 XOV       0.073200
     43 H17        -30.0070   -12.9820   -50.5230 h1         1 XOV       0.057950
     44 H18        -28.7480   -11.8800   -51.0650 h1         1 XOV       0.057950
     45 H19        -29.4390    -9.4520   -47.3430 hc         1 XOV       0.070700
     46 H20        -32.7970    -9.2960   -51.5330 h1         1 XOV       0.038200
     47 H21        -34.1010   -10.3310   -50.9220 h1         1 XOV       0.038200
     48 H22        -25.8510   -11.0960   -44.9560 hn         1 XOV       0.342500
     49 O22        -25.5080    -9.6180   -42.8070 o          1 XOV      -0.524000
@<TRIPOS>BOND
     1     1     3 ar  
     2     1    10 ar  
     3     1    24 1   
     4     2    11 ar  
     5     2    12 ar  
     6     2    25 1   
     7     3    12 ar  
     8     3    26 1   
     9     4    20 1   
    10     4    23 1   
    11     4    49 2   
    12     5    17 1   
    13     5    21 1   
    14     5    22 2   
    15     6     9 1   
    16     6    16 1   
    17     6    27 1   
    18     6    28 1   
    19     7    13 1   
    20     7    21 1   
    21     7    29 1   
    22     7    30 1   
    23     8    18 1   
    24     8    23 1   
    25     8    31 1   
    26     8    32 1   
    27     9    13 1   
    28     9    19 1   
    29     9    33 1   
    30    10    11 ar  
    31    10    34 1   
    32    11    35 1   
    33    12    36 1   
    34    13    37 1   
    35    13    38 1   
    36    14    17 1   
    37    14    18 1   
    38    14    39 1   
    39    14    40 1   
    40    15    17 1   
    41    15    18 1   
    42    15    41 1   
    43    15    42 1   
    44    16    21 1   
    45    16    43 1   
    46    16    44 1   
    47    17    45 1   
    48    18    20 1   
    49    19    24 1   
    50    19    46 1   
    51    19    47 1   
    52    20    48 1   
@<TRIPOS>SUBSTRUCTURE
     1 XOV         1 TEMP              0 ****  ****    0 ROOT
