@<TRIPOS>MOLECULE
XOW
   34    36     1     0     0
SMALL
abcg2


@<TRIPOS>ATOM
      1 N1         -25.8680   -45.1920   -25.5320 nb         1 XOW      -0.813000
      2 N3         -21.4850   -45.4440   -27.7260 na         1 XOW      -0.297500
      3 C4         -24.3050   -44.6050   -27.7270 ca         1 XOW      -0.014000
      4 C5         -23.7300   -45.2760   -26.6570 ca         1 XOW      -0.258500
      5 C6         -22.3300   -45.6790   -26.6800 cc         1 XOW       0.487000
      6 C7         -24.8540   -46.4360   -23.2240 c3         1 XOW       0.288100
      7 C8         -25.7300   -47.6690   -23.2640 ca         1 XOW      -0.222300
      8 C10        -25.9810   -50.0570   -22.8400 ca         1 XOW      -0.196000
      9 C13        -27.0840   -47.6020   -23.6430 ca         1 XOW       0.206100
     10 C15        -20.3870   -46.4960   -26.1620 cd         1 XOW       0.250900
     11 C1         -24.5720   -45.5520   -25.5290 ca         1 XOW       0.676900
     12 C2         -26.3840   -44.5500   -26.5850 ca         1 XOW       0.422900
     13 C3         -25.6450   -44.2250   -27.7040 ca         1 XOW      -0.240000
     14 N2         -24.0880   -46.1710   -24.4350 nu         1 XOW      -0.929100
     15 C9         -25.2090   -48.9020   -22.8760 ca         1 XOW      -0.037000
     16 C11        -27.3110   -49.9410   -23.2020 ca         1 XOW       0.204000
     17 C12        -27.8810   -48.7500   -23.6010 ca         1 XOW      -0.202000
     18 F          -28.0980   -51.0500   -23.1720 f          1 XOW      -0.186000
     19 O          -27.6670   -46.4460   -24.0330 oh         1 XOW      -0.593100
     20 C14        -20.2530   -45.9550   -27.4110 cc         1 XOW      -0.223000
     21 N4         -21.6750   -46.3220   -25.7160 nd         1 XOW      -0.721000
     22 H1         -21.7110   -44.9790   -28.5910 hn         1 XOW       0.354000
     23 H2         -23.7120   -44.3670   -28.6000 ha         1 XOW       0.103000
     24 H3         -24.1220   -46.5580   -22.4270 h1         1 XOW       0.060700
     25 H4         -25.4530   -45.5570   -22.9820 h1         1 XOW       0.060700
     26 H5         -25.5740   -51.0100   -22.5320 ha         1 XOW       0.132000
     27 H6         -19.6420   -46.9940   -25.5640 h4         1 XOW       0.042100
     28 H7         -27.4370   -44.3000   -26.5160 h4         1 XOW       0.025100
     29 H8         -26.0960   -43.7040   -28.5360 ha         1 XOW       0.130000
     30 H9         -23.1160   -46.4620   -24.4850 hn         1 XOW       0.548000
     31 H10        -24.1690   -48.9550   -22.5780 ha         1 XOW       0.111000
     32 H11        -28.9220   -48.7020   -23.8900 ha         1 XOW       0.143000
     33 H12        -26.9810   -45.8720   -24.5080 ho         1 XOW       0.526000
     34 H13        -19.4180   -45.8870   -28.0870 h4         1 XOW       0.161000
@<TRIPOS>BOND
     1     1    11 ar  
     2     1    12 ar  
     3     2     5 1   
     4     2    20 1   
     5     2    22 1   
     6     3     4 ar  
     7     3    13 ar  
     8     3    23 1   
     9     4     5 1   
    10     4    11 ar  
    11     5    21 2   
    12     6     7 1   
    13     6    14 1   
    14     6    24 1   
    15     6    25 1   
    16     7     9 ar  
    17     7    15 ar  
    18     8    15 ar  
    19     8    16 ar  
    20     8    26 1   
    21     9    17 ar  
    22     9    19 1   
    23    10    20 2   
    24    10    21 1   
    25    10    27 1   
    26    11    14 1   
    27    12    13 ar  
    28    12    28 1   
    29    13    29 1   
    30    14    30 1   
    31    15    31 1   
    32    16    17 ar  
    33    16    18 1   
    34    17    32 1   
    35    19    33 1   
    36    20    34 1   
@<TRIPOS>SUBSTRUCTURE
     1 XOW         1 TEMP              0 ****  ****    0 ROOT
