@<TRIPOS>MOLECULE
XOW
   34    36     1     0     0
SMALL
No Charge or Current Charge


@<TRIPOS>ATOM
      1 N1         -25.8930   -44.7240   -25.3000 nb         1 XOW      -0.813000
      2 N3         -21.7120   -45.8850   -27.6610 na         1 XOW      -0.297500
      3 C4         -24.4330   -44.7450   -27.7080 ca         1 XOW      -0.014000
      4 C5         -23.8680   -45.2790   -26.5300 ca         1 XOW      -0.258500
      5 C6         -22.5220   -45.8620   -26.5510 cc         1 XOW       0.487000
      6 C7         -24.9970   -46.1330   -22.9950 c3         1 XOW       0.288100
      7 C8         -25.6430   -47.4840   -23.2720 ca         1 XOW      -0.222300
      8 C10        -25.5410   -49.9180   -23.1280 ca         1 XOW      -0.196000
      9 C13        -26.9340   -47.5870   -23.8320 ca         1 XOW       0.206100
     10 C15        -20.6710   -46.8490   -26.0010 cd         1 XOW       0.250900
     11 C1         -24.6550   -45.2330   -25.3610 ca         1 XOW       0.676900
     12 C2         -26.4130   -44.2060   -26.4330 ca         1 XOW       0.422900
     13 C3         -25.7210   -44.2000   -27.6480 ca         1 XOW      -0.240000
     14 N2         -24.2140   -45.6980   -24.1520 nu         1 XOW      -0.929100
     15 C9         -24.9490   -48.6610   -22.9240 ca         1 XOW      -0.037000
     16 C11        -26.8290   -50.0040   -23.6740 ca         1 XOW       0.204000
     17 C12        -27.5260   -48.8410   -24.0240 ca         1 XOW      -0.202000
     18 F          -27.3990   -51.2130   -23.8650 f          1 XOW      -0.186000
     19 O          -27.6220   -46.4750   -24.2060 oh         1 XOW      -0.593100
     20 C14        -20.5300   -46.5120   -27.3200 cc         1 XOW      -0.223000
     21 N4         -21.9050   -46.4440   -25.5320 nd         1 XOW      -0.721000
     22 H1         -21.9560   -45.5020   -28.5650 hn         1 XOW       0.354000
     23 H2         -23.8970   -44.7440   -28.6550 ha         1 XOW       0.103000
     24 H3         -24.3330   -46.2350   -22.1240 h1         1 XOW       0.060700
     25 H4         -25.7540   -45.3840   -22.7210 h1         1 XOW       0.060700
     26 H5         -25.0060   -50.8250   -22.8590 ha         1 XOW       0.132000
     27 H6         -19.9560   -47.3580   -25.3650 h4         1 XOW       0.042100
     28 H7         -27.4180   -43.7910   -26.3630 h4         1 XOW       0.025100
     29 H8         -26.1860   -43.7770   -28.5330 ha         1 XOW       0.130000
     30 H9         -23.2830   -46.1160   -24.2590 hn         1 XOW       0.548000
     31 H10        -23.9520   -48.6020   -22.4900 ha         1 XOW       0.111000
     32 H11        -28.5210   -48.9160   -24.4530 ha         1 XOW       0.143000
     33 H12        -26.9450   -45.7980   -24.5040 ho         1 XOW       0.526000
     34 H13        -19.7080   -46.6670   -28.0090 h4         1 XOW       0.161000
@<TRIPOS>BOND
     1     1    11 ar  
     2     1    12 ar  
     3     2     5 1   
     4     2    20 1   
     5     2    22 1   
     6     3     4 ar  
     7     3    13 ar  
     8     3    23 1   
     9     4     5 1   
    10     4    11 ar  
    11     5    21 2   
    12     6     7 1   
    13     6    14 1   
    14     6    24 1   
    15     6    25 1   
    16     7     9 ar  
    17     7    15 ar  
    18     8    15 ar  
    19     8    16 ar  
    20     8    26 1   
    21     9    17 ar  
    22     9    19 1   
    23    10    20 2   
    24    10    21 1   
    25    10    27 1   
    26    11    14 1   
    27    12    13 ar  
    28    12    28 1   
    29    13    29 1   
    30    14    30 1   
    31    15    31 1   
    32    16    17 ar  
    33    16    18 1   
    34    17    32 1   
    35    19    33 1   
    36    20    34 1   
@<TRIPOS>SUBSTRUCTURE
     1 XOW         1 TEMP              0 ****  ****    0 ROOT
