@<TRIPOS>MOLECULE
XOY
   90    95     1     0     0
SMALL
No Charge or Current Charge


@<TRIPOS>ATOM
      1 C1           2.8080   -28.3260     1.9470 ca         1 XOY      -0.093000
      2 C10          5.0590   -33.0380     1.9780 ca         1 XOY      -0.108000
      3 C11          3.7020   -32.8140     2.2600 ca         1 XOY      -0.084000
      4 C12          3.0910   -31.5810     1.9480 ca         1 XOY      -0.066300
      5 C13          1.5970   -31.4320     2.2540 c3         1 XOY       0.208100
      6 C14         -0.7080   -32.0580     1.6440 c6         1 XOY       0.165800
      7 C15         -1.5660   -32.9110     0.6800 c6         1 XOY      -0.027100
      8 C16         -1.2870   -32.6160    -0.7960 ca         1 XOY      -0.076300
      9 C17         -0.1140   -31.9280    -1.1700 ca         1 XOY      -0.066300
     10 C18          0.8700   -31.4200    -0.1090 c6         1 XOY       0.207100
     11 C19          0.1470   -31.6930    -2.5310 ca         1 XOY      -0.121000
     12 C2           2.2650   -27.0820     1.5820 ca         1 XOY      -0.105000
     13 C20         -0.7530   -32.1340    -3.5150 ca         1 XOY      -0.072000
     14 C21         -1.9410   -32.8010    -3.1510 ca         1 XOY      -0.135600
     15 C22         -2.1850   -33.0610    -1.7830 ca         1 XOY      -0.073000
     16 C23         -2.8840   -33.2840    -4.2320 c          1 XOY       0.629700
     17 C24         -4.8300   -32.0980    -3.2730 c3         1 XOY       0.157300
     18 C25         -4.9540   -30.8880    -4.1910 ca         1 XOY      -0.099300
     19 C26         -3.9250   -29.9280    -4.2430 ca         1 XOY      -0.083000
     20 C27         -4.0400   -28.8110    -5.0880 ca         1 XOY      -0.121000
     21 C28         -5.1840   -28.6400    -5.8890 ca         1 XOY      -0.077300
     22 C29         -5.3060   -27.4310    -6.8040 c3         1 XOY      -0.045800
     23 C3           2.2000   -26.7150     0.2280 ca         1 XOY       0.119000
     24 C30         -6.2110   -29.5990    -5.8380 ca         1 XOY      -0.121000
     25 C31         -6.0970   -30.7180    -4.9950 ca         1 XOY      -0.083000
     26 C32         -5.2010   -34.1730    -4.5570 c          1 XOY       0.656100
     27 C33         -5.5230   -36.1240    -6.1500 c3         1 XOY      -0.044300
     28 C34         -5.7460   -37.4620    -5.3920 c          1 XOY       0.719000
     29 C35         -4.9190   -36.3870    -7.5500 c3         1 XOY       0.094600
     30 C36         -5.7640   -33.7180    -8.2750 c3         1 XOY       0.115900
     31 C37         -5.4130   -32.3310    -8.7950 ca         1 XOY      -0.054300
     32 C38         -6.0560   -31.8070    -9.9340 ca         1 XOY      -0.093500
     33 C39         -5.7250   -30.5240   -10.4070 ca         1 XOY      -0.121000
     34 C4           2.6840   -27.5860    -0.7610 ca         1 XOY      -0.105000
     35 C40         -4.7470   -29.7610    -9.7470 ca         1 XOY      -0.124000
     36 C41         -4.1020   -30.2790    -8.6120 ca         1 XOY      -0.121000
     37 C42         -4.4380   -31.5570    -8.1330 ca         1 XOY      -0.093500
     38 C5           3.2280   -28.8300    -0.3940 ca         1 XOY      -0.093000
     39 C6           3.2860   -29.2260     0.9630 cp         1 XOY      -0.032000
     40 C7           3.8640   -30.5480     1.3380 cp         1 XOY      -0.044000
     41 C8           5.2270   -30.8020     1.0510 ca         1 XOY      -0.104000
     42 C9           5.8230   -32.0320     1.3710 ca         1 XOY      -0.111000
     43 N1           0.7170   -32.0490     1.2330 n3         1 XOY      -0.708600
     44 N2          -4.2710   -33.2920    -3.9700 n          1 XOY      -0.389400
     45 N3          -4.7020   -35.1810    -5.3460 ns         1 XOY      -0.443900
     46 O1          -2.4200   -33.7500    -5.2650 o          1 XOY      -0.567100
     47 O2          -6.4050   -34.0730    -4.3670 o          1 XOY      -0.644100
     48 O3          -4.7660   -38.0870    -5.0080 o          1 XOY      -0.712000
     49 O4          -6.8960   -37.8220    -5.1810 o          1 XOY      -0.712000
     50 S1          -4.2910   -34.8450    -8.3880 ss         1 XOY      -0.509000
     51 Cl3          1.5190   -25.1600    -0.2290 cl         1 XOY      -0.208000
     52 H1           2.8620   -28.6000     2.9980 ha         1 XOY       0.122500
     53 H2           5.5150   -33.9950     2.2240 ha         1 XOY       0.115000
     54 H3           3.1140   -33.6070     2.7170 ha         1 XOY       0.128000
     55 H4           1.3360   -30.3750     2.3780 h1         1 XOY       0.040200
     56 H5           1.4110   -31.9050     3.2280 h1         1 XOY       0.040200
     57 H6          -1.1010   -31.0300     1.6610 h1         1 XOY       0.030700
     58 H7          -0.8170   -32.4630     2.6610 h1         1 XOY       0.030700
     59 H8          -2.6290   -32.7520     0.9040 hc         1 XOY       0.059200
     60 H9          -1.3650   -33.9730     0.8710 hc         1 XOY       0.059200
     61 H10          1.8910   -31.5830    -0.4840 h1         1 XOY       0.042700
     62 H11          0.7340   -30.3310    -0.0270 h1         1 XOY       0.042700
     63 H12          1.0500   -31.1650    -2.8290 ha         1 XOY       0.107000
     64 H13          1.8960   -26.4020     2.3470 ha         1 XOY       0.128500
     65 H14         -0.5330   -31.9440    -4.5640 ha         1 XOY       0.125000
     66 H15         -3.0700   -33.6210    -1.4840 ha         1 XOY       0.133000
     67 H16         -4.2130   -31.8140    -2.4160 h1         1 XOY       0.061700
     68 H17         -5.8150   -32.3270    -2.8480 h1         1 XOY       0.061700
     69 H18         -3.0350   -30.0440    -3.6280 ha         1 XOY       0.118500
     70 H19         -3.2390   -28.0760    -5.1180 ha         1 XOY       0.104000
     71 H20         -5.9610   -27.6390    -7.6580 hc         1 XOY       0.037700
     72 H21         -5.7220   -26.5730    -6.2630 hc         1 XOY       0.037700
     73 H22         -4.3290   -27.1350    -7.2040 hc         1 XOY       0.037700
     74 H23         -7.0990   -29.4820    -6.4550 ha         1 XOY       0.104000
     75 H24         -6.9000   -31.4500    -4.9670 ha         1 XOY       0.118500
     76 H25         -6.5130   -35.6750    -6.3000 h1         1 XOY       0.061700
     77 H26         -5.6750   -36.8670    -8.1870 h1         1 XOY       0.078700
     78 H27         -4.0750   -37.0850    -7.4550 h1         1 XOY       0.078700
     79 H28         -6.0880   -33.6280    -7.2310 h1         1 XOY       0.073700
     80 H29         -6.5930   -34.1460    -8.8540 h1         1 XOY       0.073700
     81 H30         -6.8110   -32.3920   -10.4540 ha         1 XOY       0.122000
     82 H31         -6.2250   -30.1240   -11.2860 ha         1 XOY       0.102000
     83 H32          2.6380   -27.2980    -1.8080 ha         1 XOY       0.128500
     84 H33         -4.4910   -28.7690   -10.1130 ha         1 XOY       0.097000
     85 H34         -3.3470   -29.6900    -8.0980 ha         1 XOY       0.102000
     86 H35         -3.9390   -31.9490    -7.2500 ha         1 XOY       0.122000
     87 H36          3.6000   -29.5000    -1.1660 ha         1 XOY       0.122500
     88 H37          5.8280   -30.0280     0.5790 ha         1 XOY       0.113000
     89 H38          6.8730   -32.2040     1.1470 ha         1 XOY       0.112000
     90 H40         -3.7010   -35.1480    -5.5120 hn         1 XOY       0.345500
@<TRIPOS>BOND
     1     1    12 ar  
     2     1    39 ar  
     3     1    52 1   
     4     2     3 ar  
     5     2    42 ar  
     6     2    53 1   
     7     3     4 ar  
     8     3    54 1   
     9     4     5 1   
    10     4    40 ar  
    11     5    43 1   
    12     5    55 1   
    13     5    56 1   
    14     6     7 1   
    15     6    43 1   
    16     6    57 1   
    17     6    58 1   
    18     7     8 1   
    19     7    59 1   
    20     7    60 1   
    21     8     9 ar  
    22     8    15 ar  
    23     9    10 1   
    24     9    11 ar  
    25    10    43 1   
    26    10    61 1   
    27    10    62 1   
    28    11    13 ar  
    29    11    63 1   
    30    12    23 ar  
    31    12    64 1   
    32    13    14 ar  
    33    13    65 1   
    34    14    15 ar  
    35    14    16 1   
    36    15    66 1   
    37    16    44 1   
    38    16    46 2   
    39    17    18 1   
    40    17    44 1   
    41    17    67 1   
    42    17    68 1   
    43    18    19 ar  
    44    18    25 ar  
    45    19    20 ar  
    46    19    69 1   
    47    20    21 ar  
    48    20    70 1   
    49    21    22 1   
    50    21    24 ar  
    51    22    71 1   
    52    22    72 1   
    53    22    73 1   
    54    23    34 ar  
    55    23    51 1   
    56    24    25 ar  
    57    24    74 1   
    58    25    75 1   
    59    26    44 1   
    60    26    45 1   
    61    26    47 2   
    62    27    28 1   
    63    27    29 1   
    64    27    45 1   
    65    27    76 1   
    66    28    48 1   
    67    28    49 1   
    68    29    50 1   
    69    29    77 1   
    70    29    78 1   
    71    30    31 1   
    72    30    50 1   
    73    30    79 1   
    74    30    80 1   
    75    31    32 ar  
    76    31    37 ar  
    77    32    33 ar  
    78    32    81 1   
    79    33    35 ar  
    80    33    82 1   
    81    34    38 ar  
    82    34    83 1   
    83    35    36 ar  
    84    35    84 1   
    85    36    37 ar  
    86    36    85 1   
    87    37    86 1   
    88    38    39 ar  
    89    38    87 1   
    90    39    40 1   
    91    40    41 ar  
    92    41    42 ar  
    93    41    88 1   
    94    42    89 1   
    95    45    90 1   
@<TRIPOS>SUBSTRUCTURE
     1 XOY         1 TEMP              0 ****  ****    0 ROOT
