@<TRIPOS>MOLECULE
XOY
   90    95     1     0     0
SMALL
bcc


@<TRIPOS>ATOM
      1 C1           3.3450   -28.4530     2.7160 ca         1 XOY      -0.111000
      2 C10          4.8990   -33.2560     1.7170 ca         1 XOY      -0.126000
      3 C11          3.5890   -32.9300     2.0260 ca         1 XOY      -0.102000
      4 C12          3.1400   -31.6100     1.9890 ca         1 XOY      -0.066300
      5 C13          1.6850   -31.3510     2.2920 c3         1 XOY       0.208100
      6 C14         -0.5740   -31.9370     1.7110 c6         1 XOY       0.165800
      7 C15         -1.3900   -32.8630     0.8280 c6         1 XOY      -0.027100
      8 C16         -1.1140   -32.6240    -0.6300 ca         1 XOY      -0.076300
      9 C17          0.0330   -31.9350    -1.0210 ca         1 XOY      -0.066300
     10 C18          0.9820   -31.3690     0.0010 c6         1 XOY       0.207100
     11 C19          0.2850   -31.7390    -2.3770 ca         1 XOY      -0.139000
     12 C2           2.9900   -27.1150     2.6530 ca         1 XOY      -0.123000
     13 C20         -0.5800   -32.2230    -3.3410 ca         1 XOY      -0.090000
     14 C21         -1.7400   -32.8860    -2.9530 ca         1 XOY      -0.135600
     15 C22         -1.9950   -33.0860    -1.6020 ca         1 XOY      -0.091000
     16 C23         -2.6280   -33.4770    -3.9960 c          1 XOY       0.696700
     17 C24         -4.4430   -31.9400    -3.2840 c3         1 XOY       0.157300
     18 C25         -4.8780   -30.8860    -4.2690 ca         1 XOY      -0.099300
     19 C26         -3.9360   -30.2550    -5.0770 ca         1 XOY      -0.101000
     20 C27         -4.3140   -29.2570    -5.9630 ca         1 XOY      -0.139000
     21 C28         -5.6450   -28.8600    -6.0730 ca         1 XOY      -0.077300
     22 C29         -6.0630   -27.7960    -7.0450 c3         1 XOY      -0.045800
     23 C3           2.9290   -26.4910     1.4160 ca         1 XOY       0.027400
     24 C30         -6.5830   -29.4940    -5.2620 ca         1 XOY      -0.139000
     25 C31         -6.2070   -30.4920    -4.3750 ca         1 XOY      -0.101000
     26 C32         -4.9880   -33.8870    -4.6290 c          1 XOY       0.790100
     27 C33         -5.5410   -35.6810    -6.1490 c3         1 XOY      -0.044300
     28 C34         -5.7580   -36.9480    -5.2660 c          1 XOY       0.929600
     29 C35         -5.0860   -36.0920    -7.5470 c3         1 XOY       0.046700
     30 C36         -6.1350   -33.6830    -8.5910 c3         1 XOY       0.068000
     31 C37         -5.8550   -32.4510    -9.3970 ca         1 XOY      -0.054300
     32 C38         -6.2190   -32.3730   -10.7380 ca         1 XOY      -0.111500
     33 C39         -5.9170   -31.2430   -11.4870 ca         1 XOY      -0.139000
     34 C4           3.2230   -27.1830     0.2520 ca         1 XOY      -0.123000
     35 C40         -5.2380   -30.1820   -10.9040 ca         1 XOY      -0.142000
     36 C41         -4.8670   -30.2540    -9.5670 ca         1 XOY      -0.139000
     37 C42         -5.1730   -31.3820    -8.8190 ca         1 XOY      -0.111500
     38 C5           3.5820   -28.5200     0.3340 ca         1 XOY      -0.111000
     39 C6           3.6420   -29.1750     1.5610 cp         1 XOY      -0.032000
     40 C7           4.0400   -30.6020     1.6280 cp         1 XOY      -0.044000
     41 C8           5.3550   -30.9410     1.3010 ca         1 XOY      -0.122000
     42 C9           5.7870   -32.2550     1.3460 ca         1 XOY      -0.129000
     43 N1           0.8190   -31.9760     1.3050 n3         1 XOY      -0.708600
     44 N2          -3.9630   -33.1530    -3.9600 n          1 XOY      -0.523400
     45 N3          -4.6110   -34.7420    -5.5790 ns         1 XOY      -0.510900
     46 O1          -2.1410   -34.2430    -4.8110 o          1 XOY      -0.567100
     47 O2          -6.1470   -33.6770    -4.3130 o          1 XOY      -0.644100
     48 O3          -5.1310   -37.0140    -4.1970 o          1 XOY      -0.817300
     49 O4          -6.5630   -37.7740    -5.7370 o          1 XOY      -0.817300
     50 S1          -4.6390   -34.7170    -8.6470 ss         1 XOY      -0.413200
     51 CL3          2.4770   -24.8200     1.3280 cl         1 XOY      -0.116400
     52 H1           3.3960   -28.9400     3.6820 ha         1 XOY       0.140500
     53 H2           5.2250   -34.2880     1.7610 ha         1 XOY       0.133000
     54 H3           2.8910   -33.7120     2.2980 ha         1 XOY       0.146000
     55 H4           1.4880   -30.2730     2.3790 h1         1 XOY       0.040200
     56 H5           1.4470   -31.7880     3.2650 h1         1 XOY       0.040200
     57 H6          -0.9830   -30.9130     1.6670 h1         1 XOY       0.030700
     58 H7          -0.6510   -32.2630     2.7490 h1         1 XOY       0.030700
     59 H8          -2.4550   -32.7340     1.0340 hc         1 XOY       0.059200
     60 H9          -1.1500   -33.9010     1.0760 hc         1 XOY       0.059200
     61 H10          2.0080   -31.5160    -0.3450 h1         1 XOY       0.042700
     62 H11          0.8300   -30.2750     0.0440 h1         1 XOY       0.042700
     63 H12          1.1780   -31.2050    -2.6800 ha         1 XOY       0.125000
     64 H13          2.7640   -26.5670     3.5580 ha         1 XOY       0.146500
     65 H14         -0.3620   -32.0700    -4.3910 ha         1 XOY       0.143000
     66 H15         -2.8930   -33.6100    -1.2930 ha         1 XOY       0.151000
     67 H16         -3.6300   -31.5430    -2.6850 h1         1 XOY       0.061700
     68 H17         -5.2480   -32.1900    -2.5960 h1         1 XOY       0.061700
     69 H18         -2.8890   -30.5320    -5.0070 ha         1 XOY       0.136500
     70 H19         -3.5600   -28.7740    -6.5740 ha         1 XOY       0.122000
     71 H20         -6.4940   -28.2370    -7.9460 hc         1 XOY       0.037700
     72 H21         -6.8190   -27.1370    -6.6150 hc         1 XOY       0.037700
     73 H22         -5.2170   -27.1840    -7.3570 hc         1 XOY       0.037700
     74 H23         -7.6250   -29.2020    -5.3220 ha         1 XOY       0.122000
     75 H24         -6.9560   -30.9660    -3.7530 ha         1 XOY       0.136500
     76 H25         -6.5120   -35.1880    -6.2390 h1         1 XOY       0.061700
     77 H26         -5.8630   -36.6980    -8.0090 h1         1 XOY       0.078700
     78 H27         -4.1800   -36.7040    -7.5000 h1         1 XOY       0.078700
     79 H28         -6.3540   -33.4190    -7.5560 h1         1 XOY       0.073700
     80 H29         -6.9840   -34.2380    -8.9930 h1         1 XOY       0.073700
     81 H30         -6.7460   -33.2000   -11.1980 ha         1 XOY       0.140000
     82 H31         -6.2120   -31.1930   -12.5270 ha         1 XOY       0.120000
     83 H32          3.1720   -26.6890    -0.7090 ha         1 XOY       0.146500
     84 H33         -5.0000   -29.3020   -11.4880 ha         1 XOY       0.115000
     85 H34         -4.3370   -29.4300    -9.1050 ha         1 XOY       0.120000
     86 H35         -4.8830   -31.4320    -7.7760 ha         1 XOY       0.140000
     87 H36          3.8040   -29.0640    -0.5760 ha         1 XOY       0.140500
     88 H37          6.0450   -30.1560     1.0170 ha         1 XOY       0.131000
     89 H38          6.8130   -32.4960     1.0970 ha         1 XOY       0.130000
     90 H40         -3.6200   -34.8810    -5.7170 hn         1 XOY       0.345500
@<TRIPOS>BOND
     1     1    12 ar  
     2     1    39 ar  
     3     1    52 1   
     4     2     3 ar  
     5     2    42 ar  
     6     2    53 1   
     7     3     4 ar  
     8     3    54 1   
     9     4     5 1   
    10     4    40 ar  
    11     5    43 1   
    12     5    55 1   
    13     5    56 1   
    14     6     7 1   
    15     6    43 1   
    16     6    57 1   
    17     6    58 1   
    18     7     8 1   
    19     7    59 1   
    20     7    60 1   
    21     8     9 ar  
    22     8    15 ar  
    23     9    10 1   
    24     9    11 ar  
    25    10    43 1   
    26    10    61 1   
    27    10    62 1   
    28    11    13 ar  
    29    11    63 1   
    30    12    23 ar  
    31    12    64 1   
    32    13    14 ar  
    33    13    65 1   
    34    14    15 ar  
    35    14    16 1   
    36    15    66 1   
    37    16    44 1   
    38    16    46 2   
    39    17    18 1   
    40    17    44 1   
    41    17    67 1   
    42    17    68 1   
    43    18    19 ar  
    44    18    25 ar  
    45    19    20 ar  
    46    19    69 1   
    47    20    21 ar  
    48    20    70 1   
    49    21    22 1   
    50    21    24 ar  
    51    22    71 1   
    52    22    72 1   
    53    22    73 1   
    54    23    34 ar  
    55    23    51 1   
    56    24    25 ar  
    57    24    74 1   
    58    25    75 1   
    59    26    44 1   
    60    26    45 1   
    61    26    47 2   
    62    27    28 1   
    63    27    29 1   
    64    27    45 1   
    65    27    76 1   
    66    28    48 1   
    67    28    49 1   
    68    29    50 1   
    69    29    77 1   
    70    29    78 1   
    71    30    31 1   
    72    30    50 1   
    73    30    79 1   
    74    30    80 1   
    75    31    32 ar  
    76    31    37 ar  
    77    32    33 ar  
    78    32    81 1   
    79    33    35 ar  
    80    33    82 1   
    81    34    38 ar  
    82    34    83 1   
    83    35    36 ar  
    84    35    84 1   
    85    36    37 ar  
    86    36    85 1   
    87    37    86 1   
    88    38    39 ar  
    89    38    87 1   
    90    39    40 1   
    91    40    41 ar  
    92    41    42 ar  
    93    41    88 1   
    94    42    89 1   
    95    45    90 1   
@<TRIPOS>SUBSTRUCTURE
     1 XOY         1 TEMP              0 ****  ****    0 ROOT
