@<TRIPOS>MOLECULE
XP0
   40    43     1     0     0
SMALL
bcc


@<TRIPOS>ATOM
      1 CAL         -1.7950    -3.0610     0.2680 c5         1 XP0       0.227800
      2 CAJ         -0.5460    -3.8990     0.5050 c5         1 XP0      -0.098400
      3 CAK          0.5090    -3.1810    -0.3270 c5         1 XP0      -0.098400
      4 CAM          0.1750    -1.7110    -0.1040 c5         1 XP0       0.227800
      5 NAW         -1.2660    -1.7110     0.0870 nh         1 XP0      -0.777300
      6 C6          -2.0770    -0.6470     0.0110 ca         1 XP0       0.809200
      7 C5          -1.6670     0.7180    -0.0790 ca         1 XP0      -0.391400
      8 N1          -3.3830    -0.9310     0.0310 nb         1 XP0      -0.892000
      9 C2          -4.2900     0.0430    -0.0560 ca         1 XP0       0.950900
     10 NAA         -5.5920    -0.3490    -0.0770 nv         1 XP0      -0.936500
     11 N3          -4.0450     1.3410    -0.1660 nb         1 XP0      -0.833000
     12 C4          -2.7440     1.6170    -0.1660 ca         1 XP0       0.510800
     13 NAP         -2.2500     2.8770    -0.2340 na         1 XP0      -0.265100
     14 CAI         -0.8940     2.8430    -0.1770 cc         1 XP0      -0.112100
     15 CAS         -0.4690     1.5410    -0.0780 cd         1 XP0       0.035100
     16 CAC          0.9070     1.2440     0.0180 ch         1 XP0      -0.097300
     17 CAB          2.1000     1.0640     0.0980 cg         1 XP0      -0.141000
     18 CAQ          3.4940     0.7970     0.1800 ca         1 XP0       0.040000
     19 CAG          4.4190     1.8400     0.2990 ca         1 XP0      -0.113000
     20 CAE          5.7760     1.5650     0.3740 ca         1 XP0      -0.128500
     21 CAD          6.2300     0.2530     0.3310 ca         1 XP0      -0.124000
     22 CAF          5.3180    -0.7890     0.2130 ca         1 XP0      -0.128500
     23 CAH          3.9610    -0.5220     0.1380 ca         1 XP0      -0.113000
     24 HAL1        -2.3320    -3.3910    -0.6260 h1         1 XP0       0.058950
     25 HAL2        -2.4960    -3.0990     1.1020 h1         1 XP0       0.058950
     26 HAJ1        -0.2720    -3.8790     1.5620 hc         1 XP0       0.054200
     27 HAJ2        -0.6910    -4.9390     0.2170 hc         1 XP0       0.054200
     28 HAK1         1.5310    -3.4170    -0.0330 hc         1 XP0       0.054200
     29 HAK2         0.3980    -3.4360    -1.3840 hc         1 XP0       0.054200
     30 HAM1         0.6860    -1.3260     0.7820 h1         1 XP0       0.058950
     31 HAM2         0.4630    -1.0940    -0.9540 h1         1 XP0       0.058950
     32 HAA1        -5.7960    -1.2720     0.2660 hn         1 XP0       0.424300
     33 HAA2        -6.2820     0.3500     0.1380 hn         1 XP0       0.424300
     34 HAP         -2.8110     3.7110    -0.3030 hn         1 XP0       0.311700
     35 HAI         -0.3050     3.7440    -0.2070 h4         1 XP0       0.171000
     36 HAG          4.0690     2.8640     0.3330 ha         1 XP0       0.133500
     37 HAH          3.2540    -1.3370     0.0440 ha         1 XP0       0.133500
     38 HAE          6.4810     2.3800     0.4660 ha         1 XP0       0.131500
     39 HAD          7.2900     0.0440     0.3880 ha         1 XP0       0.131000
     40 HAF          5.6640    -1.8130     0.1790 ha         1 XP0       0.131500
@<TRIPOS>BOND
     1     1     2 1   
     2     1     5 1   
     3     1    24 1   
     4     1    25 1   
     5     2     3 1   
     6     2    26 1   
     7     2    27 1   
     8     3     4 1   
     9     3    28 1   
    10     3    29 1   
    11     4     5 1   
    12     4    30 1   
    13     4    31 1   
    14     5     6 1   
    15     6     7 ar  
    16     6     8 ar  
    17     7    12 ar  
    18     7    15 1   
    19     8     9 ar  
    20     9    10 1   
    21     9    11 ar  
    22    10    32 1   
    23    10    33 1   
    24    11    12 ar  
    25    12    13 1   
    26    13    14 1   
    27    13    34 1   
    28    14    15 2   
    29    14    35 1   
    30    15    16 1   
    31    16    17 3   
    32    17    18 1   
    33    18    19 ar  
    34    18    23 ar  
    35    19    20 ar  
    36    19    36 1   
    37    20    21 ar  
    38    20    38 1   
    39    21    22 ar  
    40    21    39 1   
    41    22    23 ar  
    42    22    40 1   
    43    23    37 1   
@<TRIPOS>SUBSTRUCTURE
     1 XP0         1 TEMP              0 ****  ****    0 ROOT
