@<TRIPOS>MOLECULE
XP0
   40    43     1     0     0
SMALL
No Charge or Current Charge


@<TRIPOS>ATOM
      1 CAL         -0.7000    -2.1680     1.2120 c5         1 XP0       0.227800
      2 CAJ          0.6740    -2.7900     0.8520 c5         1 XP0      -0.098400
      3 CAK          0.4610    -3.1460    -0.6420 c5         1 XP0      -0.098400
      4 CAM         -0.1910    -1.8470    -1.1870 c5         1 XP0       0.227800
      5 NAW         -0.9900    -1.4020    -0.0200 nh         1 XP0      -0.777300
      6 C6          -2.0350    -0.4780    -0.1220 ca         1 XP0       0.480900
      7 C5          -1.8420     0.9080    -0.2460 ca         1 XP0      -0.260800
      8 N1          -3.2830    -0.9830    -0.1030 nb         1 XP0      -0.366000
      9 C2          -4.2750    -0.0900    -0.2260 ca         1 XP0       0.424900
     10 NAA         -5.5240    -0.6000    -0.2080 nv         1 XP0      -1.046900
     11 N3          -4.1820     1.2440    -0.3610 nb         1 XP0      -0.307000
     12 C4          -2.9310     1.7310    -0.3690 ca         1 XP0       0.182500
     13 NAP         -2.4660     3.0270    -0.4730 na         1 XP0      -0.315400
     14 CAI         -1.0560     3.0680    -0.4000 cc         1 XP0      -0.162100
     15 CAS         -0.6610     1.7480    -0.2520 cd         1 XP0       0.035100
     16 CAC          0.6960     1.3670    -0.0880 ch         1 XP0      -0.097300
     17 CAB          1.8370     0.9720     0.0890 cg         1 XP0      -0.141000
     18 CAQ          3.1650     0.4770     0.3020 ca         1 XP0       0.040000
     19 CAG          3.9570     1.0000     1.3420 ca         1 XP0      -0.095000
     20 CAE          5.2560     0.5060     1.5560 ca         1 XP0      -0.110500
     21 CAD          5.7660    -0.5130     0.7320 ca         1 XP0      -0.106000
     22 CAF          4.9770    -1.0370    -0.3060 ca         1 XP0      -0.110500
     23 CAH          3.6780    -0.5430    -0.5210 ca         1 XP0      -0.095000
     24 HAL1        -1.4590    -2.9430     1.3890 h1         1 XP0       0.058950
     25 HAL2        -0.6350    -1.5270     2.1020 h1         1 XP0       0.058950
     26 HAJ1         1.4850    -2.0640     0.9810 hc         1 XP0       0.054200
     27 HAJ2         0.9110    -3.6630     1.4700 hc         1 XP0       0.054200
     28 HAK1         1.3940    -3.3930    -1.1600 hc         1 XP0       0.054200
     29 HAK2        -0.2150    -4.0030    -0.7540 hc         1 XP0       0.054200
     30 HAM1         0.5690    -1.1040    -1.4610 h1         1 XP0       0.058950
     31 HAM2        -0.8120    -2.0480    -2.0710 h1         1 XP0       0.058950
     32 HAA1        -5.6440    -1.5560     0.1150 hn         1 XP0       0.479500
     33 HAA2        -6.3040     0.0360    -0.0630 hn         1 XP0       0.479500
     34 HAP         -3.0720     3.8350    -0.5790 hn         1 XP0       0.362000
     35 HAI         -0.4750     3.9850    -0.4410 h4         1 XP0       0.221000
     36 HAG          3.5660     1.7860     1.9840 ha         1 XP0       0.115500
     37 HAH          3.0720    -0.9540    -1.3260 ha         1 XP0       0.115500
     38 HAE          5.8670     0.9120     2.3600 ha         1 XP0       0.113500
     39 HAD          6.7710    -0.8950     0.8980 ha         1 XP0       0.113000
     40 HAF          5.3710    -1.8260    -0.9440 ha         1 XP0       0.113500
@<TRIPOS>BOND
     1     1     2 1   
     2     1     5 1   
     3     1    24 1   
     4     1    25 1   
     5     2     3 1   
     6     2    26 1   
     7     2    27 1   
     8     3     4 1   
     9     3    28 1   
    10     3    29 1   
    11     4     5 1   
    12     4    30 1   
    13     4    31 1   
    14     5     6 1   
    15     6     7 ar  
    16     6     8 ar  
    17     7    12 ar  
    18     7    15 1   
    19     8     9 ar  
    20     9    10 1   
    21     9    11 ar  
    22    10    32 1   
    23    10    33 1   
    24    11    12 ar  
    25    12    13 1   
    26    13    14 1   
    27    13    34 1   
    28    14    15 2   
    29    14    35 1   
    30    15    16 1   
    31    16    17 3   
    32    17    18 1   
    33    18    19 ar  
    34    18    23 ar  
    35    19    20 ar  
    36    19    36 1   
    37    20    21 ar  
    38    20    38 1   
    39    21    22 ar  
    40    21    39 1   
    41    22    23 ar  
    42    22    40 1   
    43    23    37 1   
@<TRIPOS>SUBSTRUCTURE
     1 XP0         1 TEMP              0 ****  ****    0 ROOT
