@<TRIPOS>MOLECULE
XP1
   22    22     1     0     0
SMALL
No Charge or Current Charge


@<TRIPOS>ATOM
      1 CAG        -18.6480   -40.7270   -18.0000 c3         1 XP1       0.238100
      2 NAF        -18.5940   -41.2350   -19.3910 nh         1 XP1      -0.852400
      3 CAK        -19.4890   -40.5870   -20.3770 c3         1 XP1       0.238100
      4 CAE        -17.7250   -42.2930   -19.7600 ca         1 XP1       0.297000
      5 CAJ        -17.2620   -42.4170   -21.0850 ca         1 XP1      -0.215000
      6 CAI        -16.4000   -43.4650   -21.4540 ca         1 XP1      -0.052000
      7 CAD        -15.9770   -44.4210   -20.5040 ca         1 XP1      -0.168600
      8 CAC        -15.0460   -45.5540   -20.9000 c          1 XP1       0.714600
      9 OAH        -14.7050   -46.3570   -20.0440 o          1 XP1      -0.730500
     10 CAA        -16.4420   -44.2960   -19.1760 ca         1 XP1      -0.052000
     11 CAB        -17.3030   -43.2460   -18.8120 ca         1 XP1      -0.215000
     12 OXT        -14.6700   -45.6240   -22.0610 o          1 XP1      -0.730500
     13 HAG1       -17.6460   -40.7290   -17.5500 h1         1 XP1       0.019367
     14 HAG2       -19.0210   -39.6940   -17.9760 h1         1 XP1       0.019367
     15 HAG3       -19.3130   -41.3530   -17.3890 h1         1 XP1       0.019367
     16 HAK1       -20.3480   -40.1200   -19.8770 h1         1 XP1       0.019367
     17 HAK2       -18.9470   -39.8120   -20.9360 h1         1 XP1       0.019367
     18 HAK3       -19.8810   -41.3290   -21.0870 h1         1 XP1       0.019367
     19 HAJ        -17.5560   -41.6960   -21.8410 ha         1 XP1       0.084000
     20 HAB        -17.6470   -43.1900   -17.7840 ha         1 XP1       0.084000
     21 HAI        -16.0600   -43.5280   -22.4860 ha         1 XP1       0.121000
     22 HAA        -16.1390   -45.0150   -18.4180 ha         1 XP1       0.121000
@<TRIPOS>BOND
     1     1     2 1   
     2     1    13 1   
     3     1    14 1   
     4     1    15 1   
     5     2     3 1   
     6     2     4 1   
     7     3    16 1   
     8     3    17 1   
     9     3    18 1   
    10     4     5 ar  
    11     4    11 ar  
    12     5     6 ar  
    13     5    19 1   
    14     6     7 ar  
    15     6    21 1   
    16     7     8 1   
    17     7    10 ar  
    18     8     9 1   
    19     8    12 1   
    20    10    11 ar  
    21    10    22 1   
    22    11    20 1   
@<TRIPOS>SUBSTRUCTURE
     1 XP1         1 TEMP              0 ****  ****    0 ROOT
