@<TRIPOS>MOLECULE
XP1
   22    22     1     0     0
SMALL
abcg2


@<TRIPOS>ATOM
      1 CAG        -18.8610   -40.9870   -18.0030 c3         1 XP1       0.238100
      2 NAF        -18.5260   -41.1950   -19.3910 nh         1 XP1      -0.852400
      3 CAK        -19.2120   -40.4370   -20.4090 c3         1 XP1       0.238100
      4 CAE        -17.7150   -42.2370   -19.7480 ca         1 XP1       0.297000
      5 CAJ        -17.4130   -42.5050   -21.0980 ca         1 XP1      -0.215000
      6 CAI        -16.5770   -43.5510   -21.4460 ca         1 XP1      -0.052000
      7 CAD        -15.9990   -44.3880   -20.4930 ca         1 XP1      -0.168600
      8 CAC        -15.0820   -45.5250   -20.8890 c          1 XP1       0.714600
      9 OAH        -14.5990   -46.2110   -19.9630 o          1 XP1      -0.730500
     10 CAA        -16.3070   -44.1290   -19.1600 ca         1 XP1      -0.052000
     11 CAB        -17.1410   -43.0900   -18.7850 ca         1 XP1      -0.215000
     12 OXT        -14.8790   -45.6900   -22.1100 o          1 XP1      -0.730500
     13 HAG1       -17.9680   -40.8500   -17.3890 h1         1 XP1       0.019367
     14 HAG2       -19.4630   -40.0880   -17.9090 h1         1 XP1       0.019367
     15 HAG3       -19.4340   -41.8180   -17.5740 h1         1 XP1       0.019367
     16 HAK1       -19.8390   -39.6850   -19.9370 h1         1 XP1       0.019367
     17 HAK2       -18.5160   -39.9150   -21.0700 h1         1 XP1       0.019367
     18 HAK3       -19.8570   -41.0630   -21.0340 h1         1 XP1       0.019367
     19 HAJ        -17.8290   -41.8940   -21.8870 ha         1 XP1       0.084000
     20 HAB        -17.3470   -42.9480   -17.7330 ha         1 XP1       0.084000
     21 HAI        -16.3690   -43.7230   -22.4940 ha         1 XP1       0.121000
     22 HAA        -15.8870   -44.7610   -18.3880 ha         1 XP1       0.121000
@<TRIPOS>BOND
     1     1     2 1   
     2     1    13 1   
     3     1    14 1   
     4     1    15 1   
     5     2     3 1   
     6     2     4 1   
     7     3    16 1   
     8     3    17 1   
     9     3    18 1   
    10     4     5 ar  
    11     4    11 ar  
    12     5     6 ar  
    13     5    19 1   
    14     6     7 ar  
    15     6    21 1   
    16     7     8 1   
    17     7    10 ar  
    18     8     9 1   
    19     8    12 1   
    20    10    11 ar  
    21    10    22 1   
    22    11    20 1   
@<TRIPOS>SUBSTRUCTURE
     1 XP1         1 TEMP              0 ****  ****    0 ROOT
