@<TRIPOS>MOLECULE
XP5
   76    75     1     0     0
SMALL
No Charge or Current Charge


@<TRIPOS>ATOM
      1 O1          -2.1910    -0.9130    -1.8860 o          1 XP5      -0.813500
      2 O2           0.1350    -1.4660    -2.4870 o          1 XP5      -0.813500
      3 P1          -0.7730    -0.4540    -1.8770 p5         1 XP5       1.380800
      4 O3          -0.3040    -0.0200    -0.3990 os         1 XP5      -0.550400
      5 C1          -0.5680    -0.8390     0.7430 c3         1 XP5       0.224600
      6 C2          -2.0450    -0.6670     1.1710 c3         1 XP5       0.038600
      7 N1          -2.5260    -1.4060     2.4360 n4         1 XP5      -0.488000
      8 C3          -1.7320    -0.9380     3.6650 c3         1 XP5       0.076900
      9 C4          -4.0100    -1.0980     2.6620 c3         1 XP5       0.076900
     10 C5          -2.3580    -2.9230     2.2640 c3         1 XP5       0.076900
     11 O4          -0.6730     0.9830    -2.6090 os         1 XP5      -0.588400
     12 C6           0.5080     1.4410    -3.3090 c3         1 XP5       0.209600
     13 C8           1.3890     3.2660    -1.5640 c3         1 XP5       0.174600
     14 O5           0.2460     3.1430    -0.6870 os         1 XP5      -0.429100
     15 C9          -0.9870     3.5480    -1.1320 c          1 XP5       0.616100
     16 O6          -1.1720     4.1770    -2.1670 o          1 XP5      -0.488000
     17 C10         -2.0440     3.4410    -0.0250 c3         1 XP5      -0.126400
     18 C11         -3.1940     2.4860    -0.4150 c3         1 XP5      -0.084400
     19 C12         -4.2670     2.3470     0.6860 c3         1 XP5      -0.069400
     20 C13         -5.3790     1.3410     0.3180 c3         1 XP5      -0.087400
     21 C14         -6.4880     1.2450     1.3890 c3         1 XP5      -0.076400
     22 C15         -7.5540     0.1840     1.0580 c3         1 XP5      -0.091100
     23 O7           3.3050    -0.1620    -3.1380 o          1 XP5      -0.492000
     24 O8           2.1530     0.9430    -1.4850 os         1 XP5      -0.444100
     25 C18          3.2760    -1.0910    -0.8920 c3         1 XP5      -0.132400
     26 C19          4.5910    -0.6620    -0.1990 c3         1 XP5      -0.067400
     27 C20          5.0150    -1.6210     0.9350 c3         1 XP5      -0.073400
     28 C21          6.3250    -1.1930     1.6300 c3         1 XP5      -0.077400
     29 C22          6.7490    -2.1510     2.7640 c3         1 XP5      -0.074400
     30 C23          8.0560    -1.7250     3.4580 c3         1 XP5      -0.089100
     31 CAM          1.6620     1.9670    -2.3820 c3         1 XP5       0.122300
     32 H11C        -0.3700    -1.8950     0.5160 h1         1 XP5       0.034200
     33 H12C         0.0880    -0.5430     1.5700 h1         1 XP5       0.034200
     34 H21C        -2.2200     0.3980     1.3290 hx         1 XP5       0.118200
     35 H22C        -2.6830    -0.9880     0.3470 hx         1 XP5       0.118200
     36 H31C        -1.8510     0.1420     3.7800 hx         1 XP5       0.091478
     37 H32C        -2.1130    -1.4460     4.5530 hx         1 XP5       0.091478
     38 H33C        -0.6770    -1.1810     3.5290 hx         1 XP5       0.091478
     39 H41C        -4.5840    -1.4270     1.7930 hx         1 XP5       0.091478
     40 H42C        -4.3570    -1.6260     3.5530 hx         1 XP5       0.091478
     41 H43C        -4.1350    -0.0220     2.8010 hx         1 XP5       0.091478
     42 H51C        -1.3000    -3.1570     2.1320 hx         1 XP5       0.091478
     43 H52C        -2.7370    -3.4300     3.1530 hx         1 XP5       0.091478
     44 H53C        -2.9200    -3.2500     1.3870 hx         1 XP5       0.091478
     45 H61C         0.9040     0.6390    -3.9460 h1         1 XP5       0.058200
     46 H62C         0.2290     2.2560    -3.9890 h1         1 XP5       0.058200
     47 HAM          2.4770     2.2490    -3.0620 h1         1 XP5       0.062700
     48 H81C         1.2860     4.1190    -2.2480 h1         1 XP5       0.061200
     49 H82C         2.2850     3.4640    -0.9610 h1         1 XP5       0.061200
     50 H101        -1.5770     3.0600     0.8920 hc         1 XP5       0.055200
     51 H102        -2.4630     4.4380     0.1570 hc         1 XP5       0.055200
     52 H111        -3.6680     2.8470    -1.3370 hc         1 XP5       0.076700
     53 H112        -2.7810     1.4980    -0.6440 hc         1 XP5       0.076700
     54 H121        -3.7900     2.0290     1.6210 hc         1 XP5       0.019200
     55 H122        -4.7170     3.3300     0.8740 hc         1 XP5       0.019200
     56 H131        -5.8300     1.6340    -0.6380 hc         1 XP5       0.050700
     57 H132        -4.9320     0.3500     0.1670 hc         1 XP5       0.050700
     58 H141        -6.0420     1.0110     2.3630 hc         1 XP5       0.026200
     59 H142        -6.9760     2.2220     1.4910 hc         1 XP5       0.026200
     60 H151        -7.1010    -0.8120     0.9870 hc         1 XP5       0.033700
     61 H152        -8.3210     0.1570     1.8410 hc         1 XP5       0.033700
     62 H153        -8.0450     0.4110     0.1040 hc         1 XP5       0.033700
     63 H181         2.4900    -1.1050    -0.1290 hc         1 XP5       0.071700
     64 H182         3.4070    -2.0870    -1.3310 hc         1 XP5       0.071700
     65 H191         5.3920    -0.6090    -0.9470 hc         1 XP5       0.055200
     66 H192         4.4690     0.3490     0.2100 hc         1 XP5       0.055200
     67 H201         4.2120    -1.6730     1.6810 hc         1 XP5       0.029700
     68 H202         5.1370    -2.6310     0.5250 hc         1 XP5       0.029700
     69 H211         7.1290    -1.1410     0.8840 hc         1 XP5       0.041700
     70 H212         6.2030    -0.1820     2.0390 hc         1 XP5       0.041700
     71 H221         5.9490    -2.2040     3.5130 hc         1 XP5       0.031700
     72 H222         6.8740    -3.1630     2.3580 hc         1 XP5       0.031700
     73 H231         8.8850    -1.6970     2.7410 hc         1 XP5       0.031367
     74 H232         7.9510    -0.7290     3.9060 hc         1 XP5       0.031367
     75 H233         8.3150    -2.4330     4.2540 hc         1 XP5       0.031367
     76 C17          2.8760    -0.1070    -1.9930 c          1 XP5       0.618100
@<TRIPOS>BOND
     1     1     3 1   
     2     2     3 1   
     3     3     4 1   
     4     3    11 1   
     5     4     5 1   
     6     5     6 1   
     7     5    32 1   
     8     5    33 1   
     9     6     7 1   
    10     6    34 1   
    11     6    35 1   
    12     7     8 1   
    13     7     9 1   
    14     7    10 1   
    15     8    36 1   
    16     8    37 1   
    17     8    38 1   
    18     9    39 1   
    19     9    40 1   
    20     9    41 1   
    21    10    42 1   
    22    10    43 1   
    23    10    44 1   
    24    11    12 1   
    25    12    31 1   
    26    12    45 1   
    27    12    46 1   
    28    13    14 1   
    29    13    31 1   
    30    13    48 1   
    31    13    49 1   
    32    14    15 1   
    33    15    16 2   
    34    15    17 1   
    35    17    18 1   
    36    17    50 1   
    37    17    51 1   
    38    18    19 1   
    39    18    52 1   
    40    18    53 1   
    41    19    20 1   
    42    19    54 1   
    43    19    55 1   
    44    20    21 1   
    45    20    56 1   
    46    20    57 1   
    47    21    22 1   
    48    21    58 1   
    49    21    59 1   
    50    22    60 1   
    51    22    61 1   
    52    22    62 1   
    53    23    76 2   
    54    24    31 1   
    55    24    76 1   
    56    25    26 1   
    57    25    63 1   
    58    25    64 1   
    59    25    76 1   
    60    26    27 1   
    61    26    65 1   
    62    26    66 1   
    63    27    28 1   
    64    27    67 1   
    65    27    68 1   
    66    28    29 1   
    67    28    69 1   
    68    28    70 1   
    69    29    30 1   
    70    29    71 1   
    71    29    72 1   
    72    30    73 1   
    73    30    74 1   
    74    30    75 1   
    75    31    47 1   
@<TRIPOS>SUBSTRUCTURE
     1 XP5         1 TEMP              0 ****  ****    0 ROOT
