@<TRIPOS>MOLECULE
XP5
   76    75     1     0     0
SMALL
abcg2


@<TRIPOS>ATOM
      1 O1          -1.6900    -1.0230    -1.6920 o          1 XP5      -0.813500
      2 O2           0.9070    -1.0940    -1.8210 o          1 XP5      -0.813500
      3 P1          -0.3610    -0.3480    -1.5370 p5         1 XP5       1.380800
      4 O3          -0.2910     0.3090    -0.0210 os         1 XP5      -0.550400
      5 C1          -0.5130    -0.5520     1.0680 c3         1 XP5       0.224600
      6 C2          -1.9900    -0.4570     1.4360 c3         1 XP5       0.038600
      7 N1          -2.4120    -1.2400     2.6450 n4         1 XP5      -0.488000
      8 C3          -1.6340    -0.8330     3.8490 c3         1 XP5       0.076900
      9 C4          -3.8530    -0.9520     2.8900 c3         1 XP5       0.076900
     10 C5          -2.2480    -2.7020     2.4140 c3         1 XP5       0.076900
     11 O4          -0.4180     1.0480    -2.3790 os         1 XP5      -0.588400
     12 C6           0.6800     1.5580    -3.1020 c3         1 XP5       0.209600
     13 C8           0.9420     3.7650    -1.8100 c3         1 XP5       0.174600
     14 O5          -0.1330     3.5420    -0.9030 os         1 XP5      -0.429100
     15 C9          -1.3840     3.5590    -1.3540 c          1 XP5       0.616100
     16 O6          -1.6870     3.8510    -2.4840 o          1 XP5      -0.488000
     17 C10         -2.3780     3.2290    -0.2730 c3         1 XP5      -0.126400
     18 C11         -3.4610     2.2680    -0.7510 c3         1 XP5      -0.084400
     19 C12         -4.5650     2.0730     0.2820 c3         1 XP5      -0.069400
     20 C13         -5.5060     0.9330    -0.0840 c3         1 XP5      -0.087400
     21 C14         -6.6460     0.7420     0.9080 c3         1 XP5      -0.076400
     22 C15         -7.5240    -0.4560     0.5730 c3         1 XP5      -0.091100
     23 O7           3.7330     0.8360    -2.3200 o          1 XP5      -0.492000
     24 O8           2.0980     1.8070    -1.1430 os         1 XP5      -0.444100
     25 C18          3.4330     0.2560    -0.0030 c3         1 XP5      -0.132400
     26 C19          4.8100    -0.3900     0.0210 c3         1 XP5      -0.067400
     27 C20          5.0640    -1.1430     1.3200 c3         1 XP5      -0.073400
     28 C21          6.4410    -1.7940     1.3670 c3         1 XP5      -0.077400
     29 C22          6.7040    -2.5540     2.6610 c3         1 XP5      -0.074400
     30 C23          8.0820    -3.2010     2.7000 c3         1 XP5      -0.089100
     31 CAM          1.5800     2.4780    -2.2920 c3         1 XP5       0.122300
     32 H11C        -0.2260    -1.5850     0.8460 h1         1 XP5       0.034200
     33 H12C         0.1230    -0.2140     1.8880 h1         1 XP5       0.034200
     34 H21C        -2.2480     0.5840     1.6340 hx         1 XP5       0.118200
     35 H22C        -2.5890    -0.8110     0.5980 hx         1 XP5       0.118200
     36 H31C        -1.6920     0.2460     3.9620 hx         1 XP5       0.091478
     37 H32C        -2.0630    -1.3170     4.7220 hx         1 XP5       0.091478
     38 H33C        -0.5990    -1.1420     3.7430 hx         1 XP5       0.091478
     39 H41C        -4.4240    -1.1980     1.9980 hx         1 XP5       0.091478
     40 H42C        -4.2000    -1.5560     3.7240 hx         1 XP5       0.091478
     41 H43C        -3.9710     0.1020     3.1270 hx         1 XP5       0.091478
     42 H51C        -1.2000    -2.9360     2.2570 hx         1 XP5       0.091478
     43 H52C        -2.6080    -3.2370     3.2890 hx         1 XP5       0.091478
     44 H53C        -2.8280    -2.9910     1.5420 hx         1 XP5       0.091478
     45 H61C         1.2810     0.7490    -3.5240 h1         1 XP5       0.058200
     46 H62C         0.2820     2.1340    -3.9400 h1         1 XP5       0.058200
     47 HAM          2.3970     2.7840    -2.9550 h1         1 XP5       0.062700
     48 H81C         0.6230     4.3480    -2.6740 h1         1 XP5       0.061200
     49 H82C         1.6810     4.3530    -1.2640 h1         1 XP5       0.061200
     50 H101        -1.8610     2.8210     0.5960 hc         1 XP5       0.055200
     51 H102        -2.8350     4.1730     0.0430 hc         1 XP5       0.055200
     52 H111        -3.9020     2.6390    -1.6790 hc         1 XP5       0.076700
     53 H112        -3.0060     1.3030    -0.9910 hc         1 XP5       0.076700
     54 H121        -4.1270     1.8730     1.2660 hc         1 XP5       0.019200
     55 H122        -5.1310     3.0040     0.3940 hc         1 XP5       0.019200
     56 H131        -5.9190     1.1050    -1.0840 hc         1 XP5       0.050700
     57 H132        -4.9280     0.0040    -0.1600 hc         1 XP5       0.050700
     58 H141        -6.2370     0.6230     1.9160 hc         1 XP5       0.026200
     59 H142        -7.2550     1.6500     0.9380 hc         1 XP5       0.026200
     60 H151        -6.9420    -1.3800     0.5650 hc         1 XP5       0.033700
     61 H152        -8.3290    -0.5800     1.2980 hc         1 XP5       0.033700
     62 H153        -7.9790    -0.3490    -0.4130 hc         1 XP5       0.033700
     63 H181         3.3080     0.9430     0.8370 hc         1 XP5       0.071700
     64 H182         2.6550    -0.5050     0.1080 hc         1 XP5       0.071700
     65 H191         4.9090    -1.0790    -0.8220 hc         1 XP5       0.055200
     66 H192         5.5810     0.3760    -0.1120 hc         1 XP5       0.055200
     67 H201         4.9580    -0.4580     2.1670 hc         1 XP5       0.029700
     68 H202         4.2940    -1.9120     1.4500 hc         1 XP5       0.029700
     69 H211         6.5480    -2.4790     0.5180 hc         1 XP5       0.041700
     70 H212         7.2110    -1.0250     1.2360 hc         1 XP5       0.041700
     71 H221         6.5980    -1.8710     3.5090 hc         1 XP5       0.031700
     72 H222         5.9360    -3.3220     2.7920 hc         1 XP5       0.031700
     73 H231         8.2050    -3.9210     1.8890 hc         1 XP5       0.031367
     74 H232         8.8720    -2.4550     2.5990 hc         1 XP5       0.031367
     75 H233         8.2470    -3.7320     3.6390 hc         1 XP5       0.031367
     76 C17          3.1280     0.9760    -1.2860 c          1 XP5       0.618100
@<TRIPOS>BOND
     1     1     3 1   
     2     2     3 1   
     3     3     4 1   
     4     3    11 1   
     5     4     5 1   
     6     5     6 1   
     7     5    32 1   
     8     5    33 1   
     9     6     7 1   
    10     6    34 1   
    11     6    35 1   
    12     7     8 1   
    13     7     9 1   
    14     7    10 1   
    15     8    36 1   
    16     8    37 1   
    17     8    38 1   
    18     9    39 1   
    19     9    40 1   
    20     9    41 1   
    21    10    42 1   
    22    10    43 1   
    23    10    44 1   
    24    11    12 1   
    25    12    31 1   
    26    12    45 1   
    27    12    46 1   
    28    13    14 1   
    29    13    31 1   
    30    13    48 1   
    31    13    49 1   
    32    14    15 1   
    33    15    16 2   
    34    15    17 1   
    35    17    18 1   
    36    17    50 1   
    37    17    51 1   
    38    18    19 1   
    39    18    52 1   
    40    18    53 1   
    41    19    20 1   
    42    19    54 1   
    43    19    55 1   
    44    20    21 1   
    45    20    56 1   
    46    20    57 1   
    47    21    22 1   
    48    21    58 1   
    49    21    59 1   
    50    22    60 1   
    51    22    61 1   
    52    22    62 1   
    53    23    76 2   
    54    24    31 1   
    55    24    76 1   
    56    25    26 1   
    57    25    63 1   
    58    25    64 1   
    59    25    76 1   
    60    26    27 1   
    61    26    65 1   
    62    26    66 1   
    63    27    28 1   
    64    27    67 1   
    65    27    68 1   
    66    28    29 1   
    67    28    69 1   
    68    28    70 1   
    69    29    30 1   
    70    29    71 1   
    71    29    72 1   
    72    30    73 1   
    73    30    74 1   
    74    30    75 1   
    75    31    47 1   
@<TRIPOS>SUBSTRUCTURE
     1 XP5         1 TEMP              0 ****  ****    0 ROOT
