@<TRIPOS>MOLECULE
XP6
   28    29     1     0     0
SMALL
abcg2


@<TRIPOS>ATOM
      1 N           15.7970    -1.7340    11.9080 n8         1 XP6      -1.033200
      2 CA          17.2350    -1.5410    12.0490 c3         1 XP6       0.173800
      3 CB          17.9320    -1.7620    10.7040 c3         1 XP6      -0.003200
      4 C2          20.4920    -1.7640    10.6210 cc         1 XP6      -0.273100
      5 C3          19.2830    -1.1310    10.6070 cd         1 XP6      -0.049400
      6 C4          18.7530     1.4090    10.3370 ca         1 XP6       0.377100
      7 C5          19.3750     2.6350    10.1150 ca         1 XP6      -0.271000
      8 C6          20.7720     2.7320    10.0210 ca         1 XP6      -0.037000
      9 C7          21.6010     1.6330    10.1370 ca         1 XP6      -0.293000
     10 C8          20.9750     0.3990    10.3450 ca         1 XP6      -0.004200
     11 C9          19.5760     0.2670    10.4350 ca         1 XP6      -0.190800
     12 N1          21.5060    -0.8520    10.4700 na         1 XP6      -0.256700
     13 O1          15.0380     1.0050     9.9590 o          1 XP6      -0.895167
     14 O2          16.0390     3.3710    10.0810 o          1 XP6      -0.895167
     15 O3          16.6540     1.8200     8.1230 o          1 XP6      -0.895167
     16 O4          17.4500     1.2380    10.5050 os         1 XP6      -0.423500
     17 P           16.1590     1.9510     9.5510 p5         1 XP6       1.254900
     18 H3          15.3570    -1.6500    12.8150 hn         1 XP6       0.414000
     19 HN1         15.4320    -0.9670    11.3510 hn         1 XP6       0.414000
     20 HA1         17.6200    -2.2640    12.7740 h1         1 XP6       0.011200
     21 HA2         17.5010    -0.5500    12.4350 h1         1 XP6       0.011200
     22 HB2         17.2940    -1.3530     9.9170 hc         1 XP6       0.053200
     23 HB1         18.0080    -2.8350    10.5080 hc         1 XP6       0.053200
     24 H2          20.7120    -2.8170    10.7180 h4         1 XP6       0.171000
     25 H5          18.7690     3.5280    10.0390 ha         1 XP6       0.145000
     26 H6          21.2120     3.7080     9.8560 ha         1 XP6       0.065000
     27 H7          22.6770     1.7230    10.0680 ha         1 XP6       0.067000
     28 H1          22.4850    -1.0770    10.4330 hn         1 XP6       0.308000
@<TRIPOS>BOND
     1     1     2 1   
     2     1    18 1   
     3     1    19 1   
     4     2     3 1   
     5     2    20 1   
     6     2    21 1   
     7     3     5 1   
     8     3    22 1   
     9     3    23 1   
    10     4     5 2   
    11     4    12 1   
    12     4    24 1   
    13     5    11 1   
    14     6     7 ar  
    15     6    11 ar  
    16     6    16 1   
    17     7     8 ar  
    18     7    25 1   
    19     8     9 ar  
    20     8    26 1   
    21     9    10 ar  
    22     9    27 1   
    23    10    11 ar  
    24    10    12 1   
    25    12    28 1   
    26    13    17 1   
    27    14    17 1   
    28    15    17 1   
    29    16    17 1   
@<TRIPOS>SUBSTRUCTURE
     1 XP6         1 TEMP              0 ****  ****    0 ROOT
