@<TRIPOS>MOLECULE
XP6
   28    29     1     0     0
SMALL
No Charge or Current Charge


@<TRIPOS>ATOM
      1 N           15.9190    -2.2090    12.1170 n8         1 XP6      -1.033200
      2 CA          17.2370    -1.5470    12.0440 c3         1 XP6       0.173800
      3 CB          17.9600    -1.8140    10.7050 c3         1 XP6      -0.003200
      4 C2          20.5170    -1.8050    10.8720 cc         1 XP6      -0.273100
      5 C3          19.3150    -1.1490    10.6390 cd         1 XP6      -0.049400
      6 C4          18.7390     1.3350    10.0160 ca         1 XP6       0.377100
      7 C5          19.3610     2.5850     9.7690 ca         1 XP6      -0.271000
      8 C6          20.7660     2.7210     9.8370 ca         1 XP6      -0.037000
      9 C7          21.5710     1.6100    10.1520 ca         1 XP6      -0.293000
     10 C8          20.9390     0.3870    10.3930 ca         1 XP6      -0.004200
     11 C9          19.5800     0.2480    10.3310 ca         1 XP6      -0.190800
     12 N1          21.5150    -0.8240    10.7130 na         1 XP6      -0.256700
     13 O1          14.9100     1.5620     9.6530 o          1 XP6      -0.895167
     14 O2          16.2660     3.3400    10.5950 o          1 XP6      -0.895167
     15 O3          16.4620     2.7710     8.2360 o          1 XP6      -0.895167
     16 O4          17.3820     1.1440     9.9600 os         1 XP6      -0.423500
     17 P           16.2430     2.2260     9.6050 p5         1 XP6       1.254900
     18 H3          15.4720    -1.9560    13.0070 hn         1 XP6       0.414000
     19 HN1         15.3000    -1.7790    11.4170 hn         1 XP6       0.414000
     20 HA1         17.8560    -1.9190    12.8720 h1         1 XP6       0.011200
     21 HA2         17.0920    -0.4670    12.1810 h1         1 XP6       0.011200
     22 HB2         17.3320    -1.4770     9.8730 hc         1 XP6       0.053200
     23 HB1         18.0770    -2.8970    10.5780 hc         1 XP6       0.053200
     24 H2          20.7300    -2.8380    11.1270 h4         1 XP6       0.171000
     25 H5          18.7680     3.4590     9.5230 ha         1 XP6       0.145000
     26 H6          21.2280     3.6870     9.6450 ha         1 XP6       0.065000
     27 H7          22.6520     1.7020    10.2060 ha         1 XP6       0.067000
     28 H1          22.5140    -0.9740    10.8170 hn         1 XP6       0.308000
@<TRIPOS>BOND
     1     1     2 1   
     2     1    18 1   
     3     1    19 1   
     4     2     3 1   
     5     2    20 1   
     6     2    21 1   
     7     3     5 1   
     8     3    22 1   
     9     3    23 1   
    10     4     5 2   
    11     4    12 1   
    12     4    24 1   
    13     5    11 1   
    14     6     7 ar  
    15     6    11 ar  
    16     6    16 1   
    17     7     8 ar  
    18     7    25 1   
    19     8     9 ar  
    20     8    26 1   
    21     9    10 ar  
    22     9    27 1   
    23    10    11 ar  
    24    10    12 1   
    25    12    28 1   
    26    13    17 1   
    27    14    17 1   
    28    15    17 1   
    29    16    17 1   
@<TRIPOS>SUBSTRUCTURE
     1 XP6         1 TEMP              0 ****  ****    0 ROOT
