@<TRIPOS>MOLECULE
XP7
   50    52     1     0     0
SMALL
No Charge or Current Charge


@<TRIPOS>ATOM
      1 C4          28.5460   116.5710   280.0240 ca         1 XP7       0.141100
      2 C5          30.8210   118.0910   279.3480 ca         1 XP7       0.141000
      3 C6          29.7910   116.3100   280.6400 ca         1 XP7       0.100000
      4 C7          15.7580   116.9810   281.9580 c          1 XP7       0.563000
      5 C8          21.5580   114.8700   282.5830 c          1 XP7       0.608100
      6 C10         17.7200   116.6370   280.6550 c5         1 XP7      -0.090400
      7 C13         22.7600   114.0920   280.4490 c6         1 XP7       0.099000
      8 C15         25.1560   114.9900   280.4560 c6         1 XP7      -0.063700
      9 C17         20.2300   115.0160   281.8100 c3         1 XP7      -0.154400
     10 C1          28.4520   117.6050   279.0620 ca         1 XP7      -0.172000
     11 C2          29.5910   118.3610   278.7280 ca         1 XP7      -0.110000
     12 C3          30.9250   117.0690   280.3030 ca         1 XP7      -0.109000
     13 C9          16.2090   116.9230   280.5060 c5         1 XP7      -0.173400
     14 C11         23.7520   115.0840   279.7960 c6         1 XP7      -0.093400
     15 C12         25.0320   115.1600   281.9990 c6         1 XP7      -0.093400
     16 C14         24.0000   114.1700   282.5900 c6         1 XP7       0.099000
     17 C16         17.7010   115.6090   281.8310 c5         1 XP7       0.107700
     18 C18         26.1450   116.0110   279.8260 c3         1 XP7       0.170600
     19 C19         19.0190   115.5250   282.6340 c3         1 XP7      -0.075400
     20 N20         16.5790   116.1140   282.6260 ns         1 XP7      -0.513900
     21 N21         22.6830   114.3240   281.9170 n          1 XP7      -0.415800
     22 O23         21.6320   115.2000   283.7610 o          1 XP7      -0.600100
     23 O24         27.4540   115.8020   280.3840 os         1 XP7      -0.333100
     24 F25         31.9110   118.8200   279.0240 f          1 XP7      -0.174000
     25 Cl26        29.9480   115.0310   281.8460 cl         1 XP7      -0.174000
     26 H1          18.1730   116.2330   279.7420 hc         1 XP7       0.054200
     27 H2          18.2680   117.5490   280.9240 hc         1 XP7       0.054200
     28 H3          21.7830   114.1810   279.9600 h1         1 XP7       0.055950
     29 H4          23.1080   113.0630   280.2720 h1         1 XP7       0.055950
     30 H5          25.5690   113.9930   280.2460 hc         1 XP7       0.063700
     31 H6          20.0110   114.0550   281.3300 hc         1 XP7       0.056200
     32 H7          20.4220   115.6580   280.9430 hc         1 XP7       0.056200
     33 H8          27.5120   117.8340   278.5670 ha         1 XP7       0.123000
     34 H9          29.5230   119.1560   277.9890 ha         1 XP7       0.135000
     35 H10         31.8800   116.8660   280.7790 ha         1 XP7       0.148000
     36 H11         15.9490   117.8340   279.9570 hc         1 XP7       0.075200
     37 H12         15.7420   116.0500   280.0350 hc         1 XP7       0.075200
     38 H13         23.8250   114.8740   278.7200 hc         1 XP7       0.055450
     39 H14         23.3590   116.1060   279.8910 hc         1 XP7       0.055450
     40 H15         26.0060   115.0000   282.4820 hc         1 XP7       0.055450
     41 H16         24.7280   116.1880   282.2390 hc         1 XP7       0.055450
     42 H17         23.9150   114.3310   283.6730 h1         1 XP7       0.055950
     43 H18         24.3570   113.1400   282.4450 h1         1 XP7       0.055950
     44 H19         17.4660   114.6050   281.4510 h1         1 XP7       0.040700
     45 H20         25.7910   117.0290   280.0330 h1         1 XP7       0.038200
     46 H21         26.1650   115.8620   278.7380 h1         1 XP7       0.038200
     47 H22         19.2600   116.5120   283.0500 hc         1 XP7       0.067700
     48 H23         18.8720   114.8550   283.4900 hc         1 XP7       0.067700
     49 H24         16.5160   116.0800   283.6370 hn         1 XP7       0.326500
     50 O22         15.0360   117.7890   282.5180 o          1 XP7      -0.549000
@<TRIPOS>BOND
     1     1     3 ar  
     2     1    10 ar  
     3     1    23 1   
     4     2    11 ar  
     5     2    12 ar  
     6     2    24 1   
     7     3    12 ar  
     8     3    25 1   
     9     4    13 1   
    10     4    20 1   
    11     4    50 2   
    12     5     9 1   
    13     5    21 1   
    14     5    22 2   
    15     6    13 1   
    16     6    17 1   
    17     6    26 1   
    18     6    27 1   
    19     7    14 1   
    20     7    21 1   
    21     7    28 1   
    22     7    29 1   
    23     8    14 1   
    24     8    15 1   
    25     8    18 1   
    26     8    30 1   
    27     9    19 1   
    28     9    31 1   
    29     9    32 1   
    30    10    11 ar  
    31    10    33 1   
    32    11    34 1   
    33    12    35 1   
    34    13    36 1   
    35    13    37 1   
    36    14    38 1   
    37    14    39 1   
    38    15    16 1   
    39    15    40 1   
    40    15    41 1   
    41    16    21 1   
    42    16    42 1   
    43    16    43 1   
    44    17    19 1   
    45    17    20 1   
    46    17    44 1   
    47    18    23 1   
    48    18    45 1   
    49    18    46 1   
    50    19    47 1   
    51    19    48 1   
    52    20    49 1   
@<TRIPOS>SUBSTRUCTURE
     1 XP7         1 TEMP              0 ****  ****    0 ROOT
