@<TRIPOS>MOLECULE
XP7
   50    52     1     0     0
SMALL
bcc


@<TRIPOS>ATOM
      1 C4          28.4630   116.5690   280.0500 ca         1 XP7       0.141100
      2 C5          30.8390   117.7410   279.2220 ca         1 XP7       0.105900
      3 C6          29.6730   116.2890   280.6970 ca         1 XP7       0.008400
      4 C7          15.7460   116.6300   281.9570 c          1 XP7       0.705500
      5 C8          21.5610   114.9290   282.5790 c          1 XP7       0.675100
      6 C10         17.8020   116.6030   280.7230 c5         1 XP7      -0.090400
      7 C13         22.7590   114.3560   280.4700 c6         1 XP7       0.099000
      8 C15         25.1330   115.1760   280.5110 c6         1 XP7      -0.063700
      9 C17         20.2820   115.0850   281.7760 c3         1 XP7      -0.154400
     10 C1          28.4800   117.4680   278.9880 ca         1 XP7      -0.190000
     11 C2          29.6680   118.0550   278.5690 ca         1 XP7      -0.128000
     12 C3          30.8620   116.8640   280.2900 ca         1 XP7      -0.127000
     13 C9          16.3320   116.9940   280.6080 c5         1 XP7      -0.173400
     14 C11         23.7670   115.3100   279.8420 c6         1 XP7      -0.093400
     15 C12         24.9870   115.3660   282.0190 c6         1 XP7      -0.093400
     16 C14         23.9470   114.4090   282.5860 c6         1 XP7       0.099000
     17 C16         17.8130   115.5010   281.7910 c5         1 XP7       0.107700
     18 C18         26.1200   116.1410   279.8860 c3         1 XP7       0.147400
     19 C19         19.0790   115.4510   282.6330 c3         1 XP7      -0.075400
     20 N20         16.6440   115.8420   282.5790 ns         1 XP7      -0.580900
     21 N21         22.6740   114.5620   281.9040 n          1 XP7      -0.482800
     22 O23         21.5690   115.1260   283.7880 o          1 XP7      -0.600100
     23 O24         27.3780   115.9360   280.5100 os         1 XP7      -0.309900
     24 F25         31.9950   118.2930   278.8220 f          1 XP7      -0.138900
     25 CL26        29.6700   115.1920   282.0290 cl         1 XP7      -0.082400
     26 H1          18.2340   116.2670   279.7820 hc         1 XP7       0.054200
     27 H2          18.3900   117.4540   281.0750 hc         1 XP7       0.054200
     28 H3          21.7870   114.4800   280.0030 h1         1 XP7       0.055950
     29 H4          23.0730   113.3230   280.2830 h1         1 XP7       0.055950
     30 H5          25.4960   114.1560   280.3250 hc         1 XP7       0.063700
     31 H6          20.0730   114.1540   281.2380 hc         1 XP7       0.056200
     32 H7          20.4350   115.8440   281.0040 hc         1 XP7       0.056200
     33 H8          27.5670   117.7230   278.4680 ha         1 XP7       0.141000
     34 H9          29.6680   118.7490   277.7390 ha         1 XP7       0.153000
     35 H10         31.7900   116.6310   280.7960 ha         1 XP7       0.166000
     36 H11         16.1670   118.0450   280.3720 hc         1 XP7       0.075200
     37 H12         15.8140   116.4050   279.8450 hc         1 XP7       0.075200
     38 H13         23.8410   115.0930   278.7730 hc         1 XP7       0.055450
     39 H14         23.4020   116.3380   279.9380 hc         1 XP7       0.055450
     40 H15         25.9360   115.1920   282.5290 hc         1 XP7       0.055450
     41 H16         24.6860   116.3970   282.2320 hc         1 XP7       0.055450
     42 H17         23.8080   114.5740   283.6500 h1         1 XP7       0.055950
     43 H18         24.2910   113.3760   282.4570 h1         1 XP7       0.055950
     44 H19         17.6680   114.5210   281.3170 h1         1 XP7       0.040700
     45 H20         25.7900   117.1780   280.0270 h1         1 XP7       0.038200
     46 H21         26.1930   115.9550   278.8080 h1         1 XP7       0.038200
     47 H22         19.2260   116.4220   283.1110 hc         1 XP7       0.067700
     48 H23         18.9530   114.7140   283.4300 hc         1 XP7       0.067700
     49 H24         16.4200   115.3630   283.4390 hn         1 XP7       0.326500
     50 O22         14.6590   116.9670   282.3950 o          1 XP7      -0.624500
@<TRIPOS>BOND
     1     1     3 ar  
     2     1    10 ar  
     3     1    23 1   
     4     2    11 ar  
     5     2    12 ar  
     6     2    24 1   
     7     3    12 ar  
     8     3    25 1   
     9     4    13 1   
    10     4    20 1   
    11     4    50 2   
    12     5     9 1   
    13     5    21 1   
    14     5    22 2   
    15     6    13 1   
    16     6    17 1   
    17     6    26 1   
    18     6    27 1   
    19     7    14 1   
    20     7    21 1   
    21     7    28 1   
    22     7    29 1   
    23     8    14 1   
    24     8    15 1   
    25     8    18 1   
    26     8    30 1   
    27     9    19 1   
    28     9    31 1   
    29     9    32 1   
    30    10    11 ar  
    31    10    33 1   
    32    11    34 1   
    33    12    35 1   
    34    13    36 1   
    35    13    37 1   
    36    14    38 1   
    37    14    39 1   
    38    15    16 1   
    39    15    40 1   
    40    15    41 1   
    41    16    21 1   
    42    16    42 1   
    43    16    43 1   
    44    17    19 1   
    45    17    20 1   
    46    17    44 1   
    47    18    23 1   
    48    18    45 1   
    49    18    46 1   
    50    19    47 1   
    51    19    48 1   
    52    20    49 1   
@<TRIPOS>SUBSTRUCTURE
     1 XP7         1 TEMP              0 ****  ****    0 ROOT
