@<TRIPOS>MOLECULE
XP8
   43    42     1     0     0
SMALL
No Charge or Current Charge


@<TRIPOS>ATOM
      1 C           23.1520    39.3340   -45.0820 c          1 XP8       0.738000
      2 N           24.3900    38.8840   -47.2210 ns         1 XP8      -0.378900
      3 OXT         22.4290    40.1110   -44.4740 o          1 XP8      -0.748500
      4 P           20.8700    36.1330   -47.0410 p5         1 XP8       1.291900
      5 C1          25.0310    39.4060   -48.3220 c          1 XP8       0.555100
      6 O1          24.6160    40.3840   -48.9340 o          1 XP8      -0.720100
      7 C2          26.3000    38.6520   -48.7440 c3         1 XP8      -0.158400
      8 C3          27.5790    39.4470   -48.3820 c3         1 XP8      -0.073400
      9 C4          28.9020    38.6880   -48.6560 c3         1 XP8      -0.073400
     10 C5          29.1550    38.2810   -50.1320 c3         1 XP8      -0.065400
     11 C6          29.1550    39.4380   -51.1640 c3         1 XP8      -0.078400
     12 C7          30.2420    40.5140   -50.9210 c3         1 XP8      -0.063400
     13 C8          30.2600    41.6340   -51.9830 c3         1 XP8       0.110600
     14 S8          30.7530    41.0640   -53.6790 sh         1 XP8      -0.500800
     15 CA          23.1140    39.3780   -46.6360 c3         1 XP8      -0.046300
     16 CB          21.8610    38.6220   -47.1570 c3         1 XP8       0.252300
     17 CG          21.5460    38.9230   -48.6450 c3         1 XP8      -0.114100
     18 O1P         21.3720    34.8300   -46.5260 o          1 XP8      -0.942833
     19 O2P         19.7360    36.5820   -46.1870 o          1 XP8      -0.942833
     20 O3P         20.4100    35.9440   -48.4440 o          1 XP8      -0.942833
     21 O4P         22.0700    37.2080   -46.9640 os         1 XP8      -0.590400
     22 O           23.9950    38.6410   -44.5220 o          1 XP8      -0.748500
     23 HN          24.8210    38.0790   -46.7820 hn         1 XP8       0.334500
     24 H2          26.3440    37.6790   -48.2390 hc         1 XP8       0.041200
     25 H2A         26.2730    38.5040   -49.8300 hc         1 XP8       0.041200
     26 H3          27.5820    40.4030   -48.9180 hc         1 XP8       0.050700
     27 H3A         27.5450    39.6970   -47.3140 hc         1 XP8       0.050700
     28 H4          29.7390    39.3030   -48.3040 hc         1 XP8       0.022700
     29 H4A         28.9190    37.7810   -48.0400 hc         1 XP8       0.022700
     30 H5          30.1210    37.7640   -50.1870 hc         1 XP8       0.028200
     31 H5A         28.4020    37.5430   -50.4330 hc         1 XP8       0.028200
     32 H6          29.3020    39.0010   -52.1590 hc         1 XP8       0.054200
     33 H6A         28.1670    39.9140   -51.1840 hc         1 XP8       0.054200
     34 H7          30.0780    40.9800   -49.9420 hc         1 XP8       0.046200
     35 H7A         31.2300    40.0380   -50.8850 hc         1 XP8       0.046200
     36 H8          29.2660    42.0960   -52.0420 h1         1 XP8       0.058700
     37 H8A         30.9710    42.4090   -51.6680 h1         1 XP8       0.058700
     38 HS8         30.6520    42.2780   -54.2750 hs         1 XP8       0.194800
     39 HA          23.0080    40.4360   -46.9070 h1         1 XP8       0.022700
     40 HB          21.0000    38.9660   -46.5660 h1         1 XP8       0.056700
     41 HG          20.5390    38.5850   -48.9140 hc         1 XP8       0.010367
     42 HGA         21.5790    40.0030   -48.8290 hc         1 XP8       0.010367
     43 HGB         22.2720    38.4410   -49.3110 hc         1 XP8       0.010367
@<TRIPOS>BOND
     1     1     3 1   
     2     1    15 1   
     3     1    22 1   
     4     2     5 1   
     5     2    15 1   
     6     2    23 1   
     7     4    18 1   
     8     4    19 1   
     9     4    20 1   
    10     4    21 1   
    11     5     6 2   
    12     5     7 1   
    13     7     8 1   
    14     7    24 1   
    15     7    25 1   
    16     8     9 1   
    17     8    26 1   
    18     8    27 1   
    19     9    10 1   
    20     9    28 1   
    21     9    29 1   
    22    10    11 1   
    23    10    30 1   
    24    10    31 1   
    25    11    12 1   
    26    11    32 1   
    27    11    33 1   
    28    12    13 1   
    29    12    34 1   
    30    12    35 1   
    31    13    14 1   
    32    13    36 1   
    33    13    37 1   
    34    14    38 1   
    35    15    16 1   
    36    15    39 1   
    37    16    17 1   
    38    16    21 1   
    39    16    40 1   
    40    17    41 1   
    41    17    42 1   
    42    17    43 1   
@<TRIPOS>SUBSTRUCTURE
     1 XP8         1 TEMP              0 ****  ****    0 ROOT
