@<TRIPOS>MOLECULE
XP8
   43    42     1     0     0
SMALL
abcg2


@<TRIPOS>ATOM
      1 C           23.4120    39.4630   -45.5150 c          1 XP8       0.738000
      2 N           24.4070    38.6290   -47.6120 ns         1 XP8      -0.378900
      3 OXT         22.6000    40.2450   -44.9640 o          1 XP8      -0.748500
      4 P           20.5180    36.6320   -46.2780 p5         1 XP8       1.291900
      5 C1          25.1330    39.0640   -48.6540 c          1 XP8       0.555100
      6 O1          24.8140    40.0400   -49.3470 o          1 XP8      -0.720100
      7 C2          26.4130    38.3020   -48.9280 c3         1 XP8      -0.158400
      8 C3          27.6320    39.1040   -48.4510 c3         1 XP8      -0.073400
      9 C4          28.9690    38.4370   -48.7810 c3         1 XP8      -0.073400
     10 C5          29.2490    38.2500   -50.2780 c3         1 XP8      -0.065400
     11 C6          29.1470    39.5230   -51.1240 c3         1 XP8      -0.078400
     12 C7          30.1140    40.6270   -50.7020 c3         1 XP8      -0.063400
     13 C8          29.9640    41.9230   -51.4890 c3         1 XP8       0.110600
     14 S8          30.3590    41.6640   -53.2710 sh         1 XP8      -0.500800
     15 CA          23.2620    39.3220   -47.0530 c3         1 XP8      -0.046300
     16 CB          21.9330    38.6320   -47.4110 c3         1 XP8       0.252300
     17 CG          21.7040    38.5830   -48.9160 c3         1 XP8      -0.114100
     18 O1P         21.0400    35.3160   -45.7140 o          1 XP8      -0.942833
     19 O2P         19.9770    37.5990   -45.2270 o          1 XP8      -0.942833
     20 O3P         19.5950    36.4770   -47.4850 o          1 XP8      -0.942833
     21 O4P         21.9420    37.3220   -46.8560 os         1 XP8      -0.590400
     22 O           24.3110    38.7920   -44.9510 o          1 XP8      -0.748500
     23 HN          24.8050    37.9220   -47.0130 hn         1 XP8       0.334500
     24 H2          26.3980    37.3260   -48.4390 hc         1 XP8       0.041200
     25 H2A         26.4670    38.1380   -50.0050 hc         1 XP8       0.041200
     26 H3          27.5930    40.1020   -48.8930 hc         1 XP8       0.050700
     27 H3A         27.5600    39.2400   -47.3680 hc         1 XP8       0.050700
     28 H4          29.7690    39.0310   -48.3310 hc         1 XP8       0.022700
     29 H4A         29.0090    37.4570   -48.2940 hc         1 XP8       0.022700
     30 H5          30.2530    37.8280   -50.3900 hc         1 XP8       0.028200
     31 H5A         28.5620    37.5050   -50.6880 hc         1 XP8       0.028200
     32 H6          29.3320    39.2560   -52.1690 hc         1 XP8       0.054200
     33 H6A         28.1250    39.9140   -51.0900 hc         1 XP8       0.054200
     34 H7          29.9510    40.8790   -49.6510 hc         1 XP8       0.046200
     35 H7A         31.1450    40.2670   -50.7800 hc         1 XP8       0.046200
     36 H8          28.9420    42.2980   -51.4140 h1         1 XP8       0.058700
     37 H8A         30.6450    42.6820   -51.1070 h1         1 XP8       0.058700
     38 HS8         30.3770    42.9600   -53.6230 hs         1 XP8       0.194800
     39 HA          23.2410    40.3230   -47.4830 h1         1 XP8       0.022700
     40 HB          21.1430    39.2210   -46.9380 h1         1 XP8       0.056700
     41 HG          20.7600    38.0800   -49.1200 hc         1 XP8       0.010367
     42 HGA         21.6730    39.5910   -49.3360 hc         1 XP8       0.010367
     43 HGB         22.5070    38.0300   -49.4070 hc         1 XP8       0.010367
@<TRIPOS>BOND
     1     1     3 1   
     2     1    15 1   
     3     1    22 1   
     4     2     5 1   
     5     2    15 1   
     6     2    23 1   
     7     4    18 1   
     8     4    19 1   
     9     4    20 1   
    10     4    21 1   
    11     5     6 2   
    12     5     7 1   
    13     7     8 1   
    14     7    24 1   
    15     7    25 1   
    16     8     9 1   
    17     8    26 1   
    18     8    27 1   
    19     9    10 1   
    20     9    28 1   
    21     9    29 1   
    22    10    11 1   
    23    10    30 1   
    24    10    31 1   
    25    11    12 1   
    26    11    32 1   
    27    11    33 1   
    28    12    13 1   
    29    12    34 1   
    30    12    35 1   
    31    13    14 1   
    32    13    36 1   
    33    13    37 1   
    34    14    38 1   
    35    15    16 1   
    36    15    39 1   
    37    16    17 1   
    38    16    21 1   
    39    16    40 1   
    40    17    41 1   
    41    17    42 1   
    42    17    43 1   
@<TRIPOS>SUBSTRUCTURE
     1 XP8         1 TEMP              0 ****  ****    0 ROOT
