@<TRIPOS>MOLECULE
XPC
   18    18     1     0     0
SMALL
bcc


@<TRIPOS>ATOM
      1 N           -1.0670    -1.9760     0.3850 n8         1 XPC      -0.889800
      2 CB          -0.9330    -0.6890    -0.2690 c5         1 XPC       0.147500
      3 CG          -2.1940     0.1670    -0.1850 c5         1 XPC       0.130800
      4 ND          -1.7630     1.5340    -0.4520 n7         1 XPC      -0.805200
      5 CE          -0.3940     1.6440     0.0810 c5         1 XPC       0.155800
      6 CA           0.0830     0.2200     0.4250 c5         1 XPC      -0.215700
      7 C            1.5560    -0.0860     0.1180 c          1 XPC       0.933600
      8 O            1.8550    -1.2900    -0.0410 o          1 XPC      -0.843800
      9 HN          -1.6590    -2.5810    -0.1710 hn         1 XPC       0.341300
     10 HB          -0.6570    -0.7770    -1.3340 h1         1 XPC       0.013700
     11 HG          -2.9830    -0.1330    -0.8780 h1         1 XPC       0.034700
     12 HGA         -2.6020     0.0900     0.8300 h1         1 XPC       0.034700
     13 HND         -1.7270     1.6610    -1.4540 hn         1 XPC       0.323800
     14 HE           0.2570     2.1180    -0.6540 h1         1 XPC       0.044200
     15 HEA         -0.3790     2.2830     0.9670 h1         1 XPC       0.044200
     16 HA          -0.0500     0.0550     1.5040 hc         1 XPC       0.051700
     17 HNA         -0.1490    -2.4050     0.3880 hn         1 XPC       0.341300
     18 OXT          2.3490     0.8760     0.0850 o          1 XPC      -0.843800
@<TRIPOS>BOND
     1     1     2 1   
     2     1     9 1   
     3     1    17 1   
     4     2     3 1   
     5     2     6 1   
     6     2    10 1   
     7     3     4 1   
     8     3    11 1   
     9     3    12 1   
    10     4     5 1   
    11     4    13 1   
    12     5     6 1   
    13     5    14 1   
    14     5    15 1   
    15     6     7 1   
    16     6    16 1   
    17     7     8 1   
    18     7    18 1   
@<TRIPOS>SUBSTRUCTURE
     1 XPC         1 TEMP              0 ****  ****    0 ROOT
