@<TRIPOS>MOLECULE
XPC
   18    18     1     0     0
SMALL
No Charge or Current Charge


@<TRIPOS>ATOM
      1 N           -1.0910    -2.0670     0.1630 n8         1 XPC      -1.000200
      2 CB          -0.8720    -0.6970    -0.3340 c5         1 XPC       0.147500
      3 CG          -2.1650     0.2080    -0.3750 c5         1 XPC       0.130800
      4 ND          -1.7970     1.5060     0.2580 n7         1 XPC      -0.860400
      5 CE          -0.3250     1.5670     0.1610 c5         1 XPC       0.155800
      6 CA           0.0670     0.1350     0.5790 c5         1 XPC      -0.215700
      7 C            1.5580    -0.1050     0.2520 c          1 XPC       0.723000
      8 O            2.3050    -0.4380     1.1600 o          1 XPC      -0.738500
      9 HN          -1.6890    -2.5730    -0.5010 hn         1 XPC       0.396500
     10 HB          -0.4600    -0.7850    -1.3490 h1         1 XPC       0.013700
     11 HG          -2.4800     0.3620    -1.4170 h1         1 XPC       0.034700
     12 HGA         -3.0110    -0.2490     0.1580 h1         1 XPC       0.034700
     13 HND         -2.2300     2.2920    -0.2430 hn         1 XPC       0.379000
     14 HE          -0.0130     1.7940    -0.8700 h1         1 XPC       0.044200
     15 HEA          0.1010     2.3330     0.8250 h1         1 XPC       0.044200
     16 HA          -0.1210    -0.0410     1.6440 hc         1 XPC       0.051700
     17 HNA         -0.2040    -2.5820     0.1230 hn         1 XPC       0.396500
     18 OXT          1.9700     0.0530    -0.8890 o          1 XPC      -0.738500
@<TRIPOS>BOND
     1     1     2 1   
     2     1     9 1   
     3     1    17 1   
     4     2     3 1   
     5     2     6 1   
     6     2    10 1   
     7     3     4 1   
     8     3    11 1   
     9     3    12 1   
    10     4     5 1   
    11     4    13 1   
    12     5     6 1   
    13     5    14 1   
    14     5    15 1   
    15     6     7 1   
    16     6    16 1   
    17     7     8 1   
    18     7    18 1   
@<TRIPOS>SUBSTRUCTURE
     1 XPC         1 TEMP              0 ****  ****    0 ROOT
