@<TRIPOS>MOLECULE
XPD
   49    52     1     0     0
SMALL
No Charge or Current Charge


@<TRIPOS>ATOM
      1 C4         -30.5000    10.3150   -61.5170 ca         1 XPD      -0.110000
      2 C5         -19.0180    12.0470   -57.4380 ca         1 XPD      -0.082000
      3 C6         -31.4630    11.4650   -59.5990 ca         1 XPD      -0.109000
      4 C7         -20.2530    11.4800   -57.8290 ca         1 XPD      -0.136600
      5 C8         -17.8180    11.5960   -58.0150 ca         1 XPD      -0.088000
      6 C10        -29.0370    11.4290   -59.9070 ca         1 XPD       0.141100
      7 C13        -15.3680    11.7830   -58.2140 c          1 XPD       0.543000
      8 C15        -15.4240    10.3590   -58.8040 c6         1 XPD       0.071600
      9 C17        -25.2610    11.4200   -57.9020 c6         1 XPD      -0.088400
     10 C20        -25.3590    11.9960   -59.3360 c6         1 XPD      -0.063700
     11 C21        -26.5730    11.4280   -60.1230 c3         1 XPD       0.168600
     12 C1         -20.2550    10.4380   -58.7880 ca         1 XPD      -0.084000
     13 C2         -19.0530     9.9940   -59.3680 ca         1 XPD      -0.112000
     14 C3         -29.2070    10.6700   -61.0900 ca         1 XPD      -0.172000
     15 C9         -17.8350    10.5660   -58.9780 ca         1 XPD       0.096100
     16 C11        -31.6210    10.7130   -60.7720 ca         1 XPD       0.141000
     17 C12        -30.1750    11.8230   -59.1670 ca         1 XPD       0.100000
     18 C16        -24.0280    11.7190   -60.0750 c6         1 XPD      -0.088400
     19 C18        -22.8210    12.2870   -59.2930 c6         1 XPD       0.098000
     20 C19        -24.0330    11.9790   -57.1450 c6         1 XPD       0.098000
     21 N22        -16.5780    12.1910   -57.6960 ns         1 XPD      -0.143000
     22 N23        -22.7490    11.8020   -57.8820 n          1 XPD      -0.409800
     23 O24        -14.3770    12.5040   -58.2570 o          1 XPD      -0.524000
     24 O25        -21.5260    12.3890   -56.0270 o          1 XPD      -0.593100
     25 O26        -16.6530    10.1310   -59.5510 os         1 XPD      -0.325100
     26 O27        -27.7860    11.8020   -59.4480 os         1 XPD      -0.331100
     27 F28        -32.8600    10.3690   -61.1870 f          1 XPD      -0.174000
     28 Cl29       -30.0030    12.7680   -57.6870 cl         1 XPD      -0.174000
     29 H1         -30.6350     9.7320   -62.4260 ha         1 XPD       0.135000
     30 H3         -32.3350    11.7690   -59.0280 ha         1 XPD       0.148000
     31 H4         -15.3760     9.6560   -57.9630 h1         1 XPD       0.087200
     32 H5         -14.5540    10.2090   -59.4560 h1         1 XPD       0.087200
     33 H6         -26.1710    11.6510   -57.3320 hc         1 XPD       0.054950
     34 H7         -25.1900    10.3240   -57.9450 hc         1 XPD       0.054950
     35 H8         -25.5080    13.0840   -59.2760 hc         1 XPD       0.065700
     36 H9         -26.4830    10.3350   -60.1850 h1         1 XPD       0.038200
     37 H10        -26.5610    11.8380   -61.1420 h1         1 XPD       0.038200
     38 H11        -21.1870     9.9580   -59.0800 ha         1 XPD       0.124000
     39 H12        -19.0650     9.1970   -60.1080 ha         1 XPD       0.135000
     40 H13        -28.3560    10.3500   -61.6850 ha         1 XPD       0.123000
     41 H14        -23.8930    10.6380   -60.2140 hc         1 XPD       0.054950
     42 H15        -24.0540    12.1630   -61.0790 hc         1 XPD       0.054950
     43 H16        -21.9010    12.0530   -59.8430 h1         1 XPD       0.056950
     44 H17        -22.8990    13.3840   -59.2750 h1         1 XPD       0.056950
     45 H18        -23.9660    11.4790   -56.1680 h1         1 XPD       0.056950
     46 H19        -24.1860    13.0510   -56.9520 h1         1 XPD       0.056950
     47 H20        -16.6030    13.0940   -57.2400 hn         1 XPD       0.168000
     48 C14        -21.5340    11.9620   -57.1760 c          1 XPD       0.620700
     49 H2         -18.9950    12.8460   -56.7000 ha         1 XPD       0.135000
@<TRIPOS>BOND
     1     1    14 ar  
     2     1    16 ar  
     3     1    29 1   
     4     2     4 ar  
     5     2     5 ar  
     6     2    49 1   
     7     3    16 ar  
     8     3    17 ar  
     9     3    30 1   
    10     4    12 ar  
    11     4    48 1   
    12     5    15 ar  
    13     5    21 1   
    14     6    14 ar  
    15     6    17 ar  
    16     6    26 1   
    17     7     8 1   
    18     7    21 1   
    19     7    23 2   
    20     8    25 1   
    21     8    31 1   
    22     8    32 1   
    23     9    10 1   
    24     9    20 1   
    25     9    33 1   
    26     9    34 1   
    27    10    11 1   
    28    10    18 1   
    29    10    35 1   
    30    11    26 1   
    31    11    36 1   
    32    11    37 1   
    33    12    13 ar  
    34    12    38 1   
    35    13    15 ar  
    36    13    39 1   
    37    14    40 1   
    38    15    25 1   
    39    16    27 1   
    40    17    28 1   
    41    18    19 1   
    42    18    41 1   
    43    18    42 1   
    44    19    22 1   
    45    19    43 1   
    46    19    44 1   
    47    20    22 1   
    48    20    45 1   
    49    20    46 1   
    50    21    47 1   
    51    22    48 1   
    52    24    48 2   
@<TRIPOS>SUBSTRUCTURE
     1 XPD         1 TEMP              0 ****  ****    0 ROOT
