@<TRIPOS>MOLECULE
XPD
   49    52     1     0     0
SMALL
bcc


@<TRIPOS>ATOM
      1 C4         -30.0400     9.9570   -61.4350 ca         1 XPD      -0.128000
      2 C5         -19.2400    11.9340   -57.5140 ca         1 XPD      -0.100000
      3 C6         -31.1450    11.0990   -59.6240 ca         1 XPD      -0.127000
      4 C7         -20.4800    11.4540   -57.9240 ca         1 XPD      -0.136600
      5 C8         -18.0850    11.5120   -58.1500 ca         1 XPD       0.004600
      6 C10        -28.7380    11.2900   -59.8910 ca         1 XPD       0.141100
      7 C13        -15.6760    11.4050   -58.1750 c          1 XPD       0.685500
      8 C15        -15.8750    10.1400   -58.9860 c6         1 XPD       0.048400
      9 C17        -25.1930    11.8270   -57.8170 c6         1 XPD      -0.088400
     10 C20        -25.2780    12.2580   -59.2790 c6         1 XPD      -0.063700
     11 C21        -26.3740    11.5330   -60.0350 c3         1 XPD       0.145400
     12 C1         -20.5470    10.5140   -58.9480 ca         1 XPD      -0.102000
     13 C2         -19.3890    10.0630   -59.5640 ca         1 XPD      -0.130000
     14 C3         -28.8180    10.4620   -61.0070 ca         1 XPD      -0.190000
     15 C9         -18.1610    10.5680   -59.1750 ca         1 XPD       0.096100
     16 C11        -31.1820    10.2840   -60.7400 ca         1 XPD       0.105900
     17 C12        -29.9220    11.5930   -59.2090 ca         1 XPD       0.008400
     18 C16        -23.9340    12.0310   -59.9680 c6         1 XPD      -0.088400
     19 C18        -22.8120    12.7080   -59.1950 c6         1 XPD       0.098000
     20 C19        -24.0310    12.5060   -57.1040 c6         1 XPD       0.098000
     21 N22        -16.8290    12.0160   -57.8170 ns         1 XPD      -0.469100
     22 N23        -22.7860    12.2560   -57.8130 n          1 XPD      -0.476800
     23 O24        -14.5760    11.7960   -57.8440 o          1 XPD      -0.599500
     24 O25        -21.6450    11.7890   -55.9150 o          1 XPD      -0.593100
     25 O26        -17.0300    10.1790   -59.8040 os         1 XPD      -0.301900
     26 O27        -27.6130    11.8310   -59.4100 os         1 XPD      -0.307900
     27 F28        -32.3690     9.8060   -61.1480 f          1 XPD      -0.138900
     28 CL29       -29.8420    12.6110   -57.8170 cl         1 XPD      -0.082400
     29 H1         -30.0870     9.3160   -62.3050 ha         1 XPD       0.153000
     30 H3         -32.0510    11.3450   -59.0860 ha         1 XPD       0.166000
     31 H4         -15.9160     9.2900   -58.2930 h1         1 XPD       0.087200
     32 H5         -15.0210     9.9990   -59.6450 h1         1 XPD       0.087200
     33 H6         -26.1140    12.0710   -57.2850 hc         1 XPD       0.054950
     34 H7         -25.0650    10.7410   -57.7610 hc         1 XPD       0.054950
     35 H8         -25.4930    13.3340   -59.3130 hc         1 XPD       0.065700
     36 H9         -26.1910    10.4510   -60.0220 h1         1 XPD       0.038200
     37 H10        -26.3890    11.8580   -61.0820 h1         1 XPD       0.038200
     38 H11        -21.5010    10.1080   -59.2580 ha         1 XPD       0.142000
     39 H12        -19.4370     9.3240   -60.3530 ha         1 XPD       0.153000
     40 H13        -27.9300    10.1980   -61.5630 ha         1 XPD       0.141000
     41 H14        -23.7280    10.9580   -60.0470 hc         1 XPD       0.054950
     42 H15        -23.9540    12.4310   -60.9840 hc         1 XPD       0.054950
     43 H16        -21.8520    12.5330   -59.6700 h1         1 XPD       0.056950
     44 H17        -22.9750    13.7920   -59.1980 h1         1 XPD       0.056950
     45 H18        -23.9440    12.1410   -56.0850 h1         1 XPD       0.056950
     46 H19        -24.2060    13.5870   -57.0510 h1         1 XPD       0.056950
     47 H20        -16.7710    12.8260   -57.2130 hn         1 XPD       0.334500
     48 C14        -21.6870    11.8600   -57.1370 c          1 XPD       0.687700
     49 H2         -19.1680    12.6550   -56.7080 ha         1 XPD       0.153000
@<TRIPOS>BOND
     1     1    14 ar  
     2     1    16 ar  
     3     1    29 1   
     4     2     4 ar  
     5     2     5 ar  
     6     2    49 1   
     7     3    16 ar  
     8     3    17 ar  
     9     3    30 1   
    10     4    12 ar  
    11     4    48 1   
    12     5    15 ar  
    13     5    21 1   
    14     6    14 ar  
    15     6    17 ar  
    16     6    26 1   
    17     7     8 1   
    18     7    21 1   
    19     7    23 2   
    20     8    25 1   
    21     8    31 1   
    22     8    32 1   
    23     9    10 1   
    24     9    20 1   
    25     9    33 1   
    26     9    34 1   
    27    10    11 1   
    28    10    18 1   
    29    10    35 1   
    30    11    26 1   
    31    11    36 1   
    32    11    37 1   
    33    12    13 ar  
    34    12    38 1   
    35    13    15 ar  
    36    13    39 1   
    37    14    40 1   
    38    15    25 1   
    39    16    27 1   
    40    17    28 1   
    41    18    19 1   
    42    18    41 1   
    43    18    42 1   
    44    19    22 1   
    45    19    43 1   
    46    19    44 1   
    47    20    22 1   
    48    20    45 1   
    49    20    46 1   
    50    21    47 1   
    51    22    48 1   
    52    24    48 2   
@<TRIPOS>SUBSTRUCTURE
     1 XPD         1 TEMP              0 ****  ****    0 ROOT
