@<TRIPOS>MOLECULE
XPE
   73    72     1     0     0
SMALL
bcc


@<TRIPOS>ATOM
      1 O1           1.2530     0.4250    12.6810 oh         1 XPE      -0.586800
      2 C2           1.4260    -0.7510    11.9240 c3         1 XPE       0.140900
      3 C3           0.1230    -1.1230    11.2650 c3         1 XPE       0.137400
      4 O4          -0.2380    -0.1410    10.3270 os         1 XPE      -0.387600
      5 C5          -1.4190    -0.4570     9.6360 c3         1 XPE       0.138900
      6 C6          -1.7390     0.6330     8.6450 c3         1 XPE       0.138400
      7 O7          -0.7340     0.6960     7.6660 os         1 XPE      -0.388600
      8 C8          -0.9810     1.6850     6.6990 c3         1 XPE       0.138400
      9 C9           0.1930     1.7860     5.7600 c3         1 XPE       0.138400
     10 O10          0.3270     0.5970     5.0260 os         1 XPE      -0.387600
     11 C11          1.4120     0.6390     4.1330 c3         1 XPE       0.138900
     12 C12          1.4990    -0.6520     3.3620 c3         1 XPE       0.138400
     13 O13          0.3770    -0.7900     2.5290 os         1 XPE      -0.387100
     14 C14          0.4560    -1.9230     1.7010 c3         1 XPE       0.138900
     15 C15         -0.7630    -1.9990     0.8190 c3         1 XPE       0.138900
     16 O16         -0.7980    -0.8910    -0.0440 os         1 XPE      -0.386600
     17 C17         -1.8670    -0.9490    -0.9540 c3         1 XPE       0.138900
     18 C18         -1.9290     0.3250    -1.7560 c3         1 XPE       0.138900
     19 O19         -0.7670     0.4620    -2.5330 os         1 XPE      -0.387100
     20 C20         -0.7980     1.6070    -3.3480 c3         1 XPE       0.138400
     21 C21          0.5040     1.7420    -4.0940 c3         1 XPE       0.138900
     22 O22          0.6650     0.6640    -4.9790 os         1 XPE      -0.387600
     23 C23          1.8420     0.7620    -5.7400 c3         1 XPE       0.138400
     24 C24          1.9690    -0.4370    -6.6430 c3         1 XPE       0.138400
     25 O25          0.9290    -0.4380    -7.5870 os         1 XPE      -0.388600
     26 C26          1.0040    -1.5300    -8.4680 c3         1 XPE       0.138400
     27 C27         -0.1600    -1.5020    -9.4230 c3         1 XPE       0.138900
     28 O28         -0.0720    -0.3710   -10.2520 os         1 XPE      -0.387600
     29 C29         -1.1130    -0.3130   -11.1940 c3         1 XPE       0.137400
     30 C30         -0.9780     0.9280   -12.0390 c3         1 XPE       0.140900
     31 O31          0.1970     0.8470   -12.8120 oh         1 XPE      -0.586800
     32 HO1          2.0860     0.6230    13.1170 ho         1 XPE       0.400000
     33 H21          1.7290    -1.6000    12.5500 h1         1 XPE       0.024700
     34 H22          2.2000    -0.6310    11.1550 h1         1 XPE       0.024700
     35 H31A        -0.6600    -1.2470    12.0280 h1         1 XPE       0.025700
     36 H32          0.2510    -2.1020    10.7810 h1         1 XPE       0.025700
     37 H51         -2.2720    -0.5480    10.3240 h1         1 XPE       0.027450
     38 H52         -1.3270    -1.4220     9.1170 h1         1 XPE       0.027450
     39 H61         -1.8420     1.5960     9.1650 h1         1 XPE       0.027950
     40 H62         -2.7180     0.4080     8.1990 h1         1 XPE       0.027950
     41 H81         -1.1220     2.6700     7.1680 h1         1 XPE       0.027700
     42 H82         -1.9000     1.4680     6.1360 h1         1 XPE       0.027700
     43 H91          1.1080     2.0010     6.3310 h1         1 XPE       0.027700
     44 H92          0.0260     2.6440     5.0940 h1         1 XPE       0.027700
     45 H111         2.3600     0.7770     4.6710 h1         1 XPE       0.027700
     46 H112         1.3160     1.4850     3.4370 h1         1 XPE       0.027700
     47 H121         1.5830    -1.5010     4.0560 h1         1 XPE       0.027450
     48 H122         2.4270    -0.6310     2.7730 h1         1 XPE       0.027450
     49 H141         0.5070    -2.8470     2.2930 h1         1 XPE       0.027450
     50 H142         1.3650    -1.8920     1.0830 h1         1 XPE       0.027450
     51 H151        -1.6740    -2.0450     1.4340 h1         1 XPE       0.026950
     52 H152        -0.7150    -2.9410     0.2550 h1         1 XPE       0.026950
     53 H171        -2.8270    -1.0630    -0.4310 h1         1 XPE       0.026950
     54 H172        -1.7660    -1.8160    -1.6230 h1         1 XPE       0.026950
     55 H181        -2.0540     1.1850    -1.0820 h1         1 XPE       0.027450
     56 H182        -2.8270     0.2830    -2.3880 h1         1 XPE       0.027450
     57 H201        -0.9370     2.5170    -2.7470 h1         1 XPE       0.027450
     58 H202        -1.6370     1.5610    -4.0560 h1         1 XPE       0.027450
     59 H211         1.3400     1.7950    -3.3820 h1         1 XPE       0.027700
     60 H212         0.4870     2.6990    -4.6340 h1         1 XPE       0.027700
     61 H231         2.7310     0.7960    -5.0940 h1         1 XPE       0.027700
     62 H232         1.8490     1.6860    -6.3360 h1         1 XPE       0.027700
     63 H241         1.9580    -1.3590    -6.0440 h1         1 XPE       0.027700
     64 H242         2.9510    -0.3920    -7.1350 h1         1 XPE       0.027700
     65 H261         0.9720    -2.4820    -7.9200 h1         1 XPE       0.027950
     66 H262         1.9510    -1.5210    -9.0280 h1         1 XPE       0.027950
     67 H271        -1.1070    -1.5080    -8.8640 h1         1 XPE       0.027450
     68 H272        -0.1370    -2.4280   -10.0140 h1         1 XPE       0.027450
     69 H291        -2.0940    -0.2850   -10.6970 h1         1 XPE       0.025700
     70 H292        -1.1100    -1.2060   -11.8360 h1         1 XPE       0.025700
     71 H301        -0.9790     1.8120   -11.3890 h1         1 XPE       0.024700
     72 H302        -1.8770     0.9950   -12.6650 h1         1 XPE       0.024700
     73 H31          0.2720     1.6550   -13.3270 ho         1 XPE       0.400000
@<TRIPOS>BOND
     1     1     2 1   
     2     1    32 1   
     3     2     3 1   
     4     2    33 1   
     5     2    34 1   
     6     3     4 1   
     7     3    35 1   
     8     3    36 1   
     9     4     5 1   
    10     5     6 1   
    11     5    37 1   
    12     5    38 1   
    13     6     7 1   
    14     6    39 1   
    15     6    40 1   
    16     7     8 1   
    17     8     9 1   
    18     8    41 1   
    19     8    42 1   
    20     9    10 1   
    21     9    43 1   
    22     9    44 1   
    23    10    11 1   
    24    11    12 1   
    25    11    45 1   
    26    11    46 1   
    27    12    13 1   
    28    12    47 1   
    29    12    48 1   
    30    13    14 1   
    31    14    15 1   
    32    14    49 1   
    33    14    50 1   
    34    15    16 1   
    35    15    51 1   
    36    15    52 1   
    37    16    17 1   
    38    17    18 1   
    39    17    53 1   
    40    17    54 1   
    41    18    19 1   
    42    18    55 1   
    43    18    56 1   
    44    19    20 1   
    45    20    21 1   
    46    20    57 1   
    47    20    58 1   
    48    21    22 1   
    49    21    59 1   
    50    21    60 1   
    51    22    23 1   
    52    23    24 1   
    53    23    61 1   
    54    23    62 1   
    55    24    25 1   
    56    24    63 1   
    57    24    64 1   
    58    25    26 1   
    59    26    27 1   
    60    26    65 1   
    61    26    66 1   
    62    27    28 1   
    63    27    67 1   
    64    27    68 1   
    65    28    29 1   
    66    29    30 1   
    67    29    69 1   
    68    29    70 1   
    69    30    31 1   
    70    30    71 1   
    71    30    72 1   
    72    31    73 1   
@<TRIPOS>SUBSTRUCTURE
     1 XPE         1 TEMP              0 ****  ****    0 ROOT
