@<TRIPOS>MOLECULE
XPE
   73    72     1     0     0
SMALL
No Charge or Current Charge


@<TRIPOS>ATOM
      1 O1           0.3130     0.6130    13.8810 oh         1 XPE      -0.709000
      2 C2           1.2890    -0.0120    13.0230 c3         1 XPE       0.164100
      3 C3           0.6400    -1.0680    12.0880 c3         1 XPE       0.160600
      4 O4          -0.2070    -0.4000    11.1310 os         1 XPE      -0.434000
      5 C5          -0.8750    -1.2840    10.2080 c3         1 XPE       0.162100
      6 C6          -1.7340    -0.4420     9.2330 c3         1 XPE       0.161600
      7 O7          -0.8640     0.2520     8.3180 os         1 XPE      -0.435000
      8 C8          -1.5470     1.0830     7.3580 c3         1 XPE       0.161600
      9 C9          -0.5020     1.7550     6.4360 c3         1 XPE       0.161600
     10 O10          0.0530     0.7620     5.5510 os         1 XPE      -0.434000
     11 C11          1.0530     1.2640     4.6420 c3         1 XPE       0.162100
     12 C12          1.5520     0.1030     3.7490 c3         1 XPE       0.161600
     13 O13          0.5170    -0.2450     2.8080 os         1 XPE      -0.433500
     14 C14          0.8580    -1.3280     1.9200 c3         1 XPE       0.162100
     15 C15         -0.3290    -1.5880     0.9620 c3         1 XPE       0.162100
     16 O16         -0.4130    -0.5070     0.0120 os         1 XPE      -0.433000
     17 C17         -1.4930    -0.6270    -0.9350 c3         1 XPE       0.162100
     18 C18         -1.4590     0.5850    -1.8970 c3         1 XPE       0.162100
     19 O19         -0.3340     0.4480    -2.7870 os         1 XPE      -0.433500
     20 C20         -0.1850     1.5280    -3.7310 c3         1 XPE       0.161600
     21 C21          1.0450     1.2490    -4.6270 c3         1 XPE       0.162100
     22 O22          0.7350     0.1710    -5.5320 os         1 XPE      -0.434000
     23 C23          1.8110    -0.1930    -6.4180 c3         1 XPE       0.161600
     24 C24          1.3410    -1.3460    -7.3370 c3         1 XPE       0.161600
     25 O25          0.3970    -0.8290    -8.2960 os         1 XPE      -0.435000
     26 C26         -0.1280    -1.8150    -9.2080 c3         1 XPE       0.161600
     27 C27         -1.1150    -1.1280   -10.1820 c3         1 XPE       0.162100
     28 O28         -0.3730    -0.3100   -11.1080 os         1 XPE      -0.434000
     29 C29         -1.1880     0.3980   -12.0640 c3         1 XPE       0.160600
     30 C30         -0.2720     1.2290   -13.0040 c3         1 XPE       0.164100
     31 O31          0.5200     0.3830   -13.8610 oh         1 XPE      -0.709000
     32 HO1          0.7870     1.3070    14.3950 ho         1 XPE       0.499000
     33 H21          2.0540    -0.5130    13.6320 h1         1 XPE       0.024700
     34 H22          1.8000     0.7410    12.4090 h1         1 XPE       0.024700
     35 H31A         0.0640    -1.7860    12.6880 h1         1 XPE       0.025700
     36 H32          1.4360    -1.6200    11.5710 h1         1 XPE       0.025700
     37 H51         -1.5320    -1.9740    10.7520 h1         1 XPE       0.027450
     38 H52         -0.1510    -1.8800     9.6370 h1         1 XPE       0.027450
     39 H61         -2.3520     0.2640     9.8030 h1         1 XPE       0.027950
     40 H62         -2.4040    -1.1150     8.6820 h1         1 XPE       0.027950
     41 H81         -2.1200     1.8650     7.8730 h1         1 XPE       0.027700
     42 H82         -2.2460     0.4920     6.7510 h1         1 XPE       0.027700
     43 H91          0.2820     2.2210     7.0470 h1         1 XPE       0.027700
     44 H92         -0.9980     2.5450     5.8560 h1         1 XPE       0.027700
     45 H111         1.9050     1.6700     5.2030 h1         1 XPE       0.027700
     46 H112         0.6470     2.0650     4.0110 h1         1 XPE       0.027700
     47 H121         1.8190    -0.7560     4.3780 h1         1 XPE       0.027450
     48 H122         2.4550     0.4300     3.2160 h1         1 XPE       0.027450
     49 H141         1.0550    -2.2420     2.4950 h1         1 XPE       0.027450
     50 H142         1.7560    -1.0920     1.3350 h1         1 XPE       0.027450
     51 H151        -1.2570    -1.6760     1.5420 h1         1 XPE       0.026950
     52 H152        -0.1610    -2.5390     0.4390 h1         1 XPE       0.026950
     53 H171        -2.4580    -0.6360    -0.4110 h1         1 XPE       0.026950
     54 H172        -1.4100    -1.5570    -1.5130 h1         1 XPE       0.026950
     55 H181        -1.3910     1.5140    -1.3150 h1         1 XPE       0.027450
     56 H182        -2.3950     0.6090    -2.4700 h1         1 XPE       0.027450
     57 H201        -0.0290     2.4760    -3.2000 h1         1 XPE       0.027450
     58 H202        -1.0800     1.6300    -4.3580 h1         1 XPE       0.027450
     59 H211         1.9090     0.9990    -3.9970 h1         1 XPE       0.027700
     60 H212         1.2860     2.1600    -5.1900 h1         1 XPE       0.027700
     61 H231         2.6800    -0.5330    -5.8400 h1         1 XPE       0.027700
     62 H232         2.1230     0.6620    -7.0330 h1         1 XPE       0.027700
     63 H241         0.8910    -2.1400    -6.7280 h1         1 XPE       0.027700
     64 H242         2.2140    -1.7650    -7.8540 h1         1 XPE       0.027700
     65 H261        -0.6640    -2.5960    -8.6540 h1         1 XPE       0.027950
     66 H262         0.6790    -2.2930    -9.7790 h1         1 XPE       0.027950
     67 H271        -1.8340    -0.5250    -9.6110 h1         1 XPE       0.027450
     68 H272        -1.6740    -1.9020   -10.7230 h1         1 XPE       0.027450
     69 H291        -1.8760     1.0790   -11.5470 h1         1 XPE       0.025700
     70 H292        -1.7880    -0.3010   -12.6620 h1         1 XPE       0.025700
     71 H301         0.3750     1.8720   -12.3920 h1         1 XPE       0.024700
     72 H302        -0.9070     1.8870   -13.6120 h1         1 XPE       0.024700
     73 H31          1.1130     0.9770   -14.3780 ho         1 XPE       0.499000
@<TRIPOS>BOND
     1     1     2 1   
     2     1    32 1   
     3     2     3 1   
     4     2    33 1   
     5     2    34 1   
     6     3     4 1   
     7     3    35 1   
     8     3    36 1   
     9     4     5 1   
    10     5     6 1   
    11     5    37 1   
    12     5    38 1   
    13     6     7 1   
    14     6    39 1   
    15     6    40 1   
    16     7     8 1   
    17     8     9 1   
    18     8    41 1   
    19     8    42 1   
    20     9    10 1   
    21     9    43 1   
    22     9    44 1   
    23    10    11 1   
    24    11    12 1   
    25    11    45 1   
    26    11    46 1   
    27    12    13 1   
    28    12    47 1   
    29    12    48 1   
    30    13    14 1   
    31    14    15 1   
    32    14    49 1   
    33    14    50 1   
    34    15    16 1   
    35    15    51 1   
    36    15    52 1   
    37    16    17 1   
    38    17    18 1   
    39    17    53 1   
    40    17    54 1   
    41    18    19 1   
    42    18    55 1   
    43    18    56 1   
    44    19    20 1   
    45    20    21 1   
    46    20    57 1   
    47    20    58 1   
    48    21    22 1   
    49    21    59 1   
    50    21    60 1   
    51    22    23 1   
    52    23    24 1   
    53    23    61 1   
    54    23    62 1   
    55    24    25 1   
    56    24    63 1   
    57    24    64 1   
    58    25    26 1   
    59    26    27 1   
    60    26    65 1   
    61    26    66 1   
    62    27    28 1   
    63    27    67 1   
    64    27    68 1   
    65    28    29 1   
    66    29    30 1   
    67    29    69 1   
    68    29    70 1   
    69    30    31 1   
    70    30    71 1   
    71    30    72 1   
    72    31    73 1   
@<TRIPOS>SUBSTRUCTURE
     1 XPE         1 TEMP              0 ****  ****    0 ROOT
