@<TRIPOS>MOLECULE
XPG
   58    58     1     0     0
SMALL
No Charge or Current Charge


@<TRIPOS>ATOM
      1 C20          9.9360    -2.3830     0.1660 c3         1 XPG      -0.088100
      2 C19          8.5080    -2.7940    -0.2430 c3         1 XPG      -0.075400
      3 C18          7.4400    -1.7550     0.1640 c3         1 XPG      -0.077400
      4 C17          6.0090    -2.1660    -0.2460 c3         1 XPG      -0.071400
      5 C16          4.9400    -1.1240     0.1630 c3         1 XPG      -0.108400
      6 C15          3.4920    -1.5290    -0.1980 c3         1 XPG       0.203500
      7 O15          3.3370    -1.5700    -1.6160 oh         1 XPG      -0.652000
      8 C14          2.4750    -0.5580     0.3590 c2         1 XPG      -0.247200
      9 C13          2.3150     0.7230    -0.0210 c2         1 XPG      -0.190200
     10 C12          1.2450     1.5780     0.6560 c5         1 XPG      -0.029500
     11 C11          1.6760     3.0870     0.6660 c5         1 XPG       0.174300
     12 O11          2.4500     3.4250     1.8110 oh         1 XPG      -0.648000
     13 C10          0.3000     3.7770     0.6970 c5         1 XPG      -0.238400
     14 C9          -0.3910     3.0530    -0.4490 c          1 XPG       0.577100
     15 O9          -0.7530     3.5440    -1.5090 o          1 XPG      -0.498100
     16 C8          -0.0600     1.5670    -0.2190 c5         1 XPG      -0.164700
     17 C7          -1.2340     0.7970     0.4450 c3         1 XPG      -0.055400
     18 C6          -2.5280     0.7460    -0.3990 c3         1 XPG      -0.078400
     19 C5          -3.6560    -0.0670     0.2740 c3         1 XPG      -0.073400
     20 C4          -4.9500    -0.1170    -0.5670 c3         1 XPG      -0.079400
     21 C3          -6.0790    -0.9290     0.1060 c3         1 XPG      -0.053400
     22 C2          -7.3780    -0.9810    -0.7350 c3         1 XPG      -0.204400
     23 C1          -8.4530    -1.8040    -0.0030 c          1 XPG       0.717000
     24 O1A         -8.4900    -3.0100    -0.1980 o          1 XPG      -0.744500
     25 O1B         -9.1930    -1.2240     0.7770 o          1 XPG      -0.744500
     26 H1          10.2180    -1.4360    -0.3090 hc         1 XPG       0.030033
     27 H2          10.0090    -2.2620     1.2530 hc         1 XPG       0.030033
     28 H3          10.6570    -3.1500    -0.1430 hc         1 XPG       0.030033
     29 H4           8.4770    -2.9410    -1.3300 hc         1 XPG       0.037200
     30 H5           8.2700    -3.7600     0.2180 hc         1 XPG       0.037200
     31 H6           7.4770    -1.6080     1.2500 hc         1 XPG       0.035700
     32 H7           7.6840    -0.7890    -0.2980 hc         1 XPG       0.035700
     33 H8           5.9770    -2.3140    -1.3320 hc         1 XPG       0.044700
     34 H9           5.7650    -3.1310     0.2160 hc         1 XPG       0.044700
     35 H10          4.9970    -0.9700     1.2480 hc         1 XPG       0.044200
     36 H11          5.1770    -0.1590    -0.3030 hc         1 XPG       0.044200
     37 H12          3.2960    -2.5230     0.2320 h1         1 XPG       0.082700
     38 H13          2.3740    -1.4890    -1.7830 ho         1 XPG       0.436000
     39 H14          1.8470    -0.9870     1.1420 ha         1 XPG       0.176000
     40 H15          2.9520     1.1440    -0.8020 ha         1 XPG       0.172000
     41 H16          1.0400     1.2300     1.6760 hc         1 XPG       0.070700
     42 H17          2.2160     3.3520    -0.2550 h1         1 XPG       0.031700
     43 H18          2.6510     4.3840     1.7440 ho         1 XPG       0.441000
     44 H19         -0.1960     3.5320     1.6430 hc         1 XPG       0.077200
     45 H20          0.3380     4.8580     0.5270 hc         1 XPG       0.077200
     46 H21          0.0990     1.1120    -1.2030 hc         1 XPG       0.076700
     47 H22         -0.9140    -0.2330     0.6480 hc         1 XPG       0.043200
     48 H23         -1.4670     1.2430     1.4200 hc         1 XPG       0.043200
     49 H24         -2.8870     1.7660    -0.5820 hc         1 XPG       0.042200
     50 H25         -2.3030     0.3050    -1.3780 hc         1 XPG       0.042200
     51 H26         -3.3040    -1.0900     0.4550 hc         1 XPG       0.033700
     52 H27         -3.8800     0.3730     1.2540 hc         1 XPG       0.033700
     53 H28         -5.3010     0.9070    -0.7480 hc         1 XPG       0.025200
     54 H29         -4.7250    -0.5560    -1.5470 hc         1 XPG       0.025200
     55 H30         -5.7260    -1.9520     0.2880 hc         1 XPG       0.037700
     56 H31         -6.3020    -0.4900     1.0870 hc         1 XPG       0.037700
     57 H32         -7.7030     0.0610    -0.8490 hc         1 XPG       0.014700
     58 H33         -7.1030    -1.4630    -1.6820 hc         1 XPG       0.014700
@<TRIPOS>BOND
     1     1     2 1   
     2     1    26 1   
     3     1    27 1   
     4     1    28 1   
     5     2     3 1   
     6     2    29 1   
     7     2    30 1   
     8     3     4 1   
     9     3    31 1   
    10     3    32 1   
    11     4     5 1   
    12     4    33 1   
    13     4    34 1   
    14     5     6 1   
    15     5    35 1   
    16     5    36 1   
    17     6     7 1   
    18     6     8 1   
    19     6    37 1   
    20     7    38 1   
    21     8     9 2   
    22     8    39 1   
    23     9    10 1   
    24     9    40 1   
    25    10    11 1   
    26    10    16 1   
    27    10    41 1   
    28    11    12 1   
    29    11    13 1   
    30    11    42 1   
    31    12    43 1   
    32    13    14 1   
    33    13    44 1   
    34    13    45 1   
    35    14    15 2   
    36    14    16 1   
    37    16    17 1   
    38    16    46 1   
    39    17    18 1   
    40    17    47 1   
    41    17    48 1   
    42    18    19 1   
    43    18    49 1   
    44    18    50 1   
    45    19    20 1   
    46    19    51 1   
    47    19    52 1   
    48    20    21 1   
    49    20    53 1   
    50    20    54 1   
    51    21    22 1   
    52    21    55 1   
    53    21    56 1   
    54    22    23 1   
    55    22    57 1   
    56    22    58 1   
    57    23    24 1   
    58    23    25 1   
@<TRIPOS>SUBSTRUCTURE
     1 XPG         1 TEMP              0 ****  ****    0 ROOT
