@<TRIPOS>MOLECULE
XPG
   58    58     1     0     0
SMALL
bcc


@<TRIPOS>ATOM
      1 C20          9.1740    -3.4610     0.7100 c3         1 XPG      -0.088100
      2 C19          7.9200    -3.2680    -0.1320 c3         1 XPG      -0.075400
      3 C18          6.9430    -2.2740     0.4840 c3         1 XPG      -0.077400
      4 C17          5.6790    -2.0810    -0.3450 c3         1 XPG      -0.071400
      5 C16          4.7490    -1.0300     0.2490 c3         1 XPG      -0.108400
      6 C15          3.4250    -0.8720    -0.5020 c3         1 XPG       0.180300
      7 O15          3.6130    -0.6060    -1.8730 oh         1 XPG      -0.589800
      8 C14          2.5610     0.1500     0.1820 c2         1 XPG      -0.197200
      9 C13          1.9890     1.1970    -0.4020 c2         1 XPG      -0.140200
     10 C12          1.1580     2.2140     0.3040 c5         1 XPG      -0.029500
     11 C11          1.6190     3.6530     0.0570 c5         1 XPG       0.151100
     12 O11          2.8140     3.9020     0.7460 oh         1 XPG      -0.585800
     13 C10          0.4270     4.4930     0.5030 c5         1 XPG      -0.238400
     14 C9          -0.7790     3.6310     0.2060 c          1 XPG       0.577100
     15 O9          -1.9270     4.0000     0.2640 o          1 XPG      -0.498100
     16 C8          -0.3110     2.2300    -0.1480 c5         1 XPG      -0.164700
     17 C7          -1.1640     1.1010     0.4230 c3         1 XPG      -0.055400
     18 C6          -2.4590     0.8390    -0.3380 c3         1 XPG      -0.078400
     19 C5          -3.3170    -0.2410     0.3090 c3         1 XPG      -0.073400
     20 C4          -4.6060    -0.5140    -0.4560 c3         1 XPG      -0.079400
     21 C3          -5.5190    -1.5240     0.2300 c3         1 XPG      -0.053400
     22 C2          -6.7960    -1.7820    -0.5520 c3         1 XPG      -0.204400
     23 C1          -7.7990    -2.7620     0.0820 c          1 XPG       0.927600
     24 O1A         -8.8330    -2.9890    -0.5820 o          1 XPG      -0.849800
     25 O1B         -7.5160    -3.2510     1.1940 o          1 XPG      -0.849800
     26 H1           9.7020    -2.5150     0.8500 hc         1 XPG       0.030033
     27 H2           8.9280    -3.8480     1.7010 hc         1 XPG       0.030033
     28 H3           9.8690    -4.1610     0.2450 hc         1 XPG       0.030033
     29 H4           8.2000    -2.9230    -1.1330 hc         1 XPG       0.037200
     30 H5           7.4190    -4.2300    -0.2730 hc         1 XPG       0.037200
     31 H6           6.6730    -2.6090     1.4920 hc         1 XPG       0.035700
     32 H7           7.4460    -1.3090     0.6110 hc         1 XPG       0.035700
     33 H8           5.9570    -1.7960    -1.3630 hc         1 XPG       0.044700
     34 H9           5.1480    -3.0350    -0.4270 hc         1 XPG       0.044700
     35 H10          4.5210    -1.2910     1.2870 hc         1 XPG       0.044200
     36 H11          5.2620    -0.0620     0.2880 hc         1 XPG       0.044200
     37 H12          2.9030    -1.8370    -0.4650 h1         1 XPG       0.082700
     38 H13          4.1400     0.1980    -1.9520 ho         1 XPG       0.397000
     39 H14          2.4240    -0.0030     1.2500 ha         1 XPG       0.126000
     40 H15          2.1050     1.3530    -1.4720 ha         1 XPG       0.122000
     41 H16          1.1830     2.0300     1.3870 hc         1 XPG       0.070700
     42 H17          1.7570     3.7860    -1.0270 h1         1 XPG       0.031700
     43 H18          3.1120     4.7900     0.5240 ho         1 XPG       0.402000
     44 H19          0.4660     4.6420     1.5890 hc         1 XPG       0.077200
     45 H20          0.3540     5.4780     0.0390 hc         1 XPG       0.077200
     46 H21         -0.3320     2.1750    -1.2480 hc         1 XPG       0.076700
     47 H22         -0.5590     0.1880     0.4200 hc         1 XPG       0.043200
     48 H23         -1.3830     1.3120     1.4740 hc         1 XPG       0.043200
     49 H24         -3.0400     1.7610    -0.4100 hc         1 XPG       0.042200
     50 H25         -2.2170     0.5480    -1.3660 hc         1 XPG       0.042200
     51 H26         -2.7390    -1.1680     0.3960 hc         1 XPG       0.033700
     52 H27         -3.5620     0.0610     1.3330 hc         1 XPG       0.033700
     53 H28         -5.1480     0.4280    -0.5940 hc         1 XPG       0.025200
     54 H29         -4.3610    -0.8680    -1.4640 hc         1 XPG       0.025200
     55 H30         -4.9760    -2.4620     0.3770 hc         1 XPG       0.037700
     56 H31         -5.7660    -1.1600     1.2320 hc         1 XPG       0.037700
     57 H32         -7.3150    -0.8310    -0.7270 hc         1 XPG       0.014700
     58 H33         -6.5470    -2.1510    -1.5530 hc         1 XPG       0.014700
@<TRIPOS>BOND
     1     1     2 1   
     2     1    26 1   
     3     1    27 1   
     4     1    28 1   
     5     2     3 1   
     6     2    29 1   
     7     2    30 1   
     8     3     4 1   
     9     3    31 1   
    10     3    32 1   
    11     4     5 1   
    12     4    33 1   
    13     4    34 1   
    14     5     6 1   
    15     5    35 1   
    16     5    36 1   
    17     6     7 1   
    18     6     8 1   
    19     6    37 1   
    20     7    38 1   
    21     8     9 2   
    22     8    39 1   
    23     9    10 1   
    24     9    40 1   
    25    10    11 1   
    26    10    16 1   
    27    10    41 1   
    28    11    12 1   
    29    11    13 1   
    30    11    42 1   
    31    12    43 1   
    32    13    14 1   
    33    13    44 1   
    34    13    45 1   
    35    14    15 2   
    36    14    16 1   
    37    16    17 1   
    38    16    46 1   
    39    17    18 1   
    40    17    47 1   
    41    17    48 1   
    42    18    19 1   
    43    18    49 1   
    44    18    50 1   
    45    19    20 1   
    46    19    51 1   
    47    19    52 1   
    48    20    21 1   
    49    20    53 1   
    50    20    54 1   
    51    21    22 1   
    52    21    55 1   
    53    21    56 1   
    54    22    23 1   
    55    22    57 1   
    56    22    58 1   
    57    23    24 1   
    58    23    25 1   
@<TRIPOS>SUBSTRUCTURE
     1 XPG         1 TEMP              0 ****  ****    0 ROOT
