@<TRIPOS>MOLECULE
XPH
   23    23     1     0     0
SMALL
bcc


@<TRIPOS>ATOM
      1 O3          -3.1560    -0.6330     0.8790 o          1 XPH      -0.924833
      2 P           -1.8080    -0.6580     0.1310 p5         1 XPH       1.109700
      3 O2          -1.9640    -0.8620    -1.3880 o          1 XPH      -0.924833
      4 CA          -1.1940     1.1010     0.3160 c3         1 XPH      -0.005700
      5 CB          -0.0250     1.4690    -0.6010 c3         1 XPH      -0.000100
      6 CG           1.2580     0.7390    -0.3330 ca         1 XPH      -0.011300
      7 CD2          1.5320    -0.4830    -0.9440 ca         1 XPH      -0.101500
      8 CE2          2.7330    -1.1390    -0.7190 ca         1 XPH      -0.151500
      9 CZ           3.6780    -0.5970     0.1470 ca         1 XPH      -0.171000
     10 CE1          3.4110     0.6100     0.7760 ca         1 XPH      -0.151500
     11 CD1          2.2120     1.2710     0.5300 ca         1 XPH      -0.101500
     12 N           -2.2720     2.0750     0.0610 n8         1 XPH      -0.900800
     13 O1          -0.7760    -1.5800     0.7880 o          1 XPH      -0.924833
     14 HA          -0.8650     1.2510     1.3540 h1         1 XPH       0.028700
     15 HB3         -0.3370     1.2850    -1.6340 hc         1 XPH       0.016200
     16 HB2          0.1560     2.5460    -0.5130 hc         1 XPH       0.016200
     17 HD2          0.7870    -0.9160    -1.5980 ha         1 XPH       0.143000
     18 HE2          2.9330    -2.0820    -1.2120 ha         1 XPH       0.093000
     19 HG           4.6140    -1.1110     0.3250 ha         1 XPH       0.084000
     20 HE1          4.1370     1.0440     1.4530 ha         1 XPH       0.093000
     21 HD1          2.0190     2.2230     1.0120 ha         1 XPH       0.143000
     22 H           -2.5300     1.9820    -0.9170 hn         1 XPH       0.321300
     23 H2          -3.0870     1.7230     0.5520 hn         1 XPH       0.321300
@<TRIPOS>BOND
     1     1     2 1   
     2     2     3 1   
     3     2     4 1   
     4     2    13 1   
     5     4     5 1   
     6     4    12 1   
     7     4    14 1   
     8     5     6 1   
     9     5    15 1   
    10     5    16 1   
    11     6     7 ar  
    12     6    11 ar  
    13     7     8 ar  
    14     7    17 1   
    15     8     9 ar  
    16     8    18 1   
    17     9    10 ar  
    18     9    19 1   
    19    10    11 ar  
    20    10    20 1   
    21    11    21 1   
    22    12    22 1   
    23    12    23 1   
@<TRIPOS>SUBSTRUCTURE
     1 XPH         1 TEMP              0 ****  ****    0 ROOT
