@<TRIPOS>MOLECULE
XPH
   23    23     1     0     0
SMALL
No Charge or Current Charge


@<TRIPOS>ATOM
      1 O3          -3.1610    -0.6330     1.0280 o          1 XPH      -0.924833
      2 P           -1.8540    -0.6340     0.3060 p5         1 XPH       1.109700
      3 O2          -2.0680    -1.1590    -1.0740 o          1 XPH      -0.924833
      4 CA          -1.1950     1.1700     0.2320 c3         1 XPH      -0.005700
      5 CB          -0.0570     1.3500    -0.8140 c3         1 XPH      -0.000100
      6 CG           1.2520     0.6540    -0.4470 ca         1 XPH      -0.011300
      7 CD2          1.7330    -0.4230    -1.2190 ca         1 XPH      -0.101500
      8 CE2          2.9570    -1.0370    -0.8990 ca         1 XPH      -0.151500
      9 CZ           3.7100    -0.5770     0.1940 ca         1 XPH      -0.171000
     10 CE1          3.2400     0.4970     0.9660 ca         1 XPH      -0.151500
     11 CD1          2.0170     1.1120     0.6460 ca         1 XPH      -0.101500
     12 N           -2.2010     2.2870     0.0810 n8         1 XPH      -0.900800
     13 O1          -0.8990    -1.5110     1.0410 o          1 XPH      -0.924833
     14 HA          -0.7500     1.3140     1.2250 h1         1 XPH       0.028700
     15 HB3         -0.4120     1.0150    -1.7960 hc         1 XPH       0.016200
     16 HB2          0.1550     2.4210    -0.9290 hc         1 XPH       0.016200
     17 HD2          1.1570    -0.7830    -2.0690 ha         1 XPH       0.143000
     18 HE2          3.3210    -1.8680    -1.4990 ha         1 XPH       0.093000
     19 HG           4.6570    -1.0520     0.4410 ha         1 XPH       0.084000
     20 HE1          3.8240     0.8570     1.8110 ha         1 XPH       0.093000
     21 HD1          1.6630     1.9500     1.2430 ha         1 XPH       0.143000
     22 H           -2.7070     2.1490    -0.7990 hn         1 XPH       0.321300
     23 H2          -2.9250     2.1600     0.7960 hn         1 XPH       0.321300
@<TRIPOS>BOND
     1     1     2 1   
     2     2     3 1   
     3     2     4 1   
     4     2    13 1   
     5     4     5 1   
     6     4    12 1   
     7     4    14 1   
     8     5     6 1   
     9     5    15 1   
    10     5    16 1   
    11     6     7 ar  
    12     6    11 ar  
    13     7     8 ar  
    14     7    17 1   
    15     8     9 ar  
    16     8    18 1   
    17     9    10 ar  
    18     9    19 1   
    19    10    11 ar  
    20    10    20 1   
    21    11    21 1   
    22    12    22 1   
    23    12    23 1   
@<TRIPOS>SUBSTRUCTURE
     1 XPH         1 TEMP              0 ****  ****    0 ROOT
