@<TRIPOS>MOLECULE
XPJ
   30    29     1     0     0
SMALL
No Charge or Current Charge


@<TRIPOS>ATOM
      1 C1         133.8830   133.3320   108.8470 c3         1 XPJ       0.143300
      2 C2         134.0050   132.3030   106.4230 c3         1 XPJ       0.144300
      3 C3         133.1600   133.2910   110.2400 c3         1 XPJ       0.121300
      4 C4         134.1290   133.7100   105.7510 c3         1 XPJ       0.168800
      5 C5         133.7670   134.2960   111.2700 c3         1 XPJ       0.124600
      6 C6         136.1100   133.3490   104.2510 c3         1 XPJ       0.147100
      7 N          134.6630   133.6190   104.3650 n7         1 XPJ      -0.861400
      8 C          133.2850   132.3230   107.8080 c3         1 XPJ       0.155300
      9 O          131.8850   132.6000   107.6100 oh         1 XPJ      -0.708000
     10 O1         135.2820   133.0690   109.0430 oh         1 XPJ      -0.728000
     11 O2         133.2660   131.4110   105.5620 oh         1 XPJ      -0.714000
     12 O3         131.7500   133.5680   110.0770 oh         1 XPJ      -0.727000
     13 O4         135.1660   134.0320   111.4990 oh         1 XPJ      -0.734000
     14 H1         133.7600   134.3490   108.4500 h1         1 XPJ       0.052700
     15 H2         135.0200   131.9120   106.5760 h1         1 XPJ       0.049700
     16 H3         133.2840   132.2790   110.6510 h1         1 XPJ       0.057700
     17 H4         134.7660   134.3590   106.3680 h1         1 XPJ       0.063200
     18 H5         133.1300   134.1670   105.7320 h1         1 XPJ       0.063200
     19 H6         133.6320   135.3200   110.8950 h1         1 XPJ       0.036700
     20 H7         133.2120   134.2130   112.2150 h1         1 XPJ       0.036700
     21 H8         136.4090   133.3020   103.1950 h1         1 XPJ       0.025033
     22 H9         136.6950   134.1420   104.7360 h1         1 XPJ       0.025033
     23 H10        136.3730   132.3910   104.7190 h1         1 XPJ       0.025033
     24 H11        134.1600   132.8360   103.9230 hn         1 XPJ       0.423000
     25 H13        133.3850   131.3190   108.2430 h1         1 XPJ       0.024700
     26 H14        131.5930   132.9850   108.4880 ho         1 XPJ       0.520000
     27 H15        135.4580   133.3990   109.9740 ho         1 XPJ       0.534000
     28 H16        132.3380   131.5010   105.8900 ho         1 XPJ       0.497000
     29 H17        131.3400   133.5710   110.9770 ho         1 XPJ       0.517000
     30 H18        135.4390   134.5710   112.2830 ho         1 XPJ       0.520000
@<TRIPOS>BOND
     1     1     3 1   
     2     1     8 1   
     3     1    10 1   
     4     1    14 1   
     5     2     4 1   
     6     2     8 1   
     7     2    11 1   
     8     2    15 1   
     9     3     5 1   
    10     3    12 1   
    11     3    16 1   
    12     4     7 1   
    13     4    17 1   
    14     4    18 1   
    15     5    13 1   
    16     5    19 1   
    17     5    20 1   
    18     6     7 1   
    19     6    21 1   
    20     6    22 1   
    21     6    23 1   
    22     7    24 1   
    23     8     9 1   
    24     8    25 1   
    25     9    26 1   
    26    10    27 1   
    27    11    28 1   
    28    12    29 1   
    29    13    30 1   
@<TRIPOS>SUBSTRUCTURE
     1 XPJ         1 TEMP              0 ****  ****    0 ROOT
