@<TRIPOS>MOLECULE
XPJ
   30    29     1     0     0
SMALL
abcg2


@<TRIPOS>ATOM
      1 C1         133.8240   133.4030   108.8240 c3         1 XPJ       0.143300
      2 C2         133.8380   132.3900   106.4700 c3         1 XPJ       0.144300
      3 C3         133.2050   133.3030   110.2300 c3         1 XPJ       0.121300
      4 C4         134.0030   133.7160   105.7250 c3         1 XPJ       0.168800
      5 C5         133.8640   134.2530   111.2290 c3         1 XPJ       0.124600
      6 C6         136.1040   133.2710   104.5660 c3         1 XPJ       0.147100
      7 N          134.7100   133.6490   104.4610 n7         1 XPJ      -0.861400
      8 C          133.0790   132.5300   107.7970 c3         1 XPJ       0.155300
      9 O          131.7980   133.0390   107.5180 oh         1 XPJ      -0.708000
     10 O1         135.1640   132.9760   108.8600 oh         1 XPJ      -0.728000
     11 O2         133.1490   131.5120   105.5980 oh         1 XPJ      -0.714000
     12 O3         131.8320   133.6420   110.1420 oh         1 XPJ      -0.727000
     13 O4         135.2240   133.8910   111.4020 oh         1 XPJ      -0.734000
     14 H1         133.7480   134.4550   108.4980 h1         1 XPJ       0.052700
     15 H2         134.8290   131.9850   106.7000 h1         1 XPJ       0.049700
     16 H3         133.3270   132.2660   110.5760 h1         1 XPJ       0.057700
     17 H4         134.5340   134.4220   106.3700 h1         1 XPJ       0.063200
     18 H5         133.0170   134.1480   105.5390 h1         1 XPJ       0.063200
     19 H6         133.7680   135.2790   110.8550 h1         1 XPJ       0.036700
     20 H7         133.3230   134.1970   112.1820 h1         1 XPJ       0.036700
     21 H8         136.5620   133.2900   103.5760 h1         1 XPJ       0.025033
     22 H9         136.6360   133.9980   105.1840 h1         1 XPJ       0.025033
     23 H10        136.2940   132.2780   104.9950 h1         1 XPJ       0.025033
     24 H11        134.2320   133.0070   103.8440 hn         1 XPJ       0.423000
     25 H13        133.0090   131.5150   108.2310 h1         1 XPJ       0.024700
     26 H14        131.3900   133.2390   108.3720 ho         1 XPJ       0.520000
     27 H15        135.5660   133.3380   109.6650 ho         1 XPJ       0.534000
     28 H16        133.2520   130.6140   105.9270 ho         1 XPJ       0.497000
     29 H17        131.3710   133.2890   110.9100 ho         1 XPJ       0.517000
     30 H18        135.6910   134.6220   111.8170 ho         1 XPJ       0.520000
@<TRIPOS>BOND
     1     1     3 1   
     2     1     8 1   
     3     1    10 1   
     4     1    14 1   
     5     2     4 1   
     6     2     8 1   
     7     2    11 1   
     8     2    15 1   
     9     3     5 1   
    10     3    12 1   
    11     3    16 1   
    12     4     7 1   
    13     4    17 1   
    14     4    18 1   
    15     5    13 1   
    16     5    19 1   
    17     5    20 1   
    18     6     7 1   
    19     6    21 1   
    20     6    22 1   
    21     6    23 1   
    22     7    24 1   
    23     8     9 1   
    24     8    25 1   
    25     9    26 1   
    26    10    27 1   
    27    11    28 1   
    28    12    29 1   
    29    13    30 1   
@<TRIPOS>SUBSTRUCTURE
     1 XPJ         1 TEMP              0 ****  ****    0 ROOT
