@<TRIPOS>MOLECULE
XPK
   61    64     1     0     0
SMALL
No Charge or Current Charge


@<TRIPOS>ATOM
      1 C10        -15.2680   -34.0630   -57.7440 c6         1 XPK      -0.068400
      2 C13        -14.7010   -30.4480   -56.2600 c6         1 XPK       0.170300
      3 C15        -13.4930   -28.7460   -57.5580 c          1 XPK       0.592900
      4 C17        -16.4750   -37.0000   -55.3510 c5         1 XPK      -0.056700
      5 C20        -17.1660   -38.5800   -53.7070 c5         1 XPK      -0.072700
      6 C21        -18.1550   -39.1960   -51.8980 c3         1 XPK       0.301800
      7 C24        -19.6790   -39.3650   -52.0260 c3         1 XPK      -0.101100
      8 C26        -19.0120   -37.2460   -54.9190 c3         1 XPK      -0.082100
      9 C01        -17.7260   -32.6550   -56.3630 c3         1 XPK      -0.082100
     10 C02        -16.3530   -32.9740   -55.6560 c6         1 XPK      -0.035000
     11 C03        -16.0690   -31.8590   -54.5900 c6         1 XPK      -0.068400
     12 C04        -15.8390   -30.4510   -55.2110 c6         1 XPK      -0.077400
     13 C05        -16.4200   -34.4150   -54.9380 c6         1 XPK      -0.047700
     14 C06        -17.5690   -34.5630   -53.8840 c6         1 XPK      -0.069400
     15 C07        -17.5560   -35.9980   -53.2370 c6         1 XPK      -0.065400
     16 C08        -16.4670   -35.5750   -56.0080 c6         1 XPK      -0.046700
     17 C09        -15.3090   -35.4480   -57.0470 c6         1 XPK      -0.071400
     18 C11        -15.1400   -32.9270   -56.6980 c6         1 XPK      -0.053700
     19 C12        -14.9380   -31.5310   -57.3490 c6         1 XPK      -0.091400
     20 C18        -15.1700   -37.4130   -54.5920 c5         1 XPK      -0.074400
     21 C19        -15.6300   -38.4420   -53.5150 c5         1 XPK      -0.075400
     22 C25        -17.5940   -37.1920   -54.2800 c5         1 XPK      -0.038000
     23 N22        -17.5950   -40.4630   -51.4920 n1         1 XPK      -0.932500
     24 O14        -14.6050   -29.1340   -56.8480 os         1 XPK      -0.462100
     25 O16        -12.4880   -29.4380   -57.6770 o          1 XPK      -0.492000
     26 H101       -14.4110   -34.0340   -58.4300 hc         1 XPK       0.042700
     27 H102       -16.1610   -33.9240   -58.3680 hc         1 XPK       0.042700
     28 H131       -13.7590   -30.6690   -55.7350 h1         1 XPK       0.064700
     29 H151       -13.5830   -27.7240   -57.9710 h5         1 XPK       0.053200
     30 H171       -16.6390   -37.6960   -56.1840 hc         1 XPK       0.046700
     31 H201       -17.3710   -39.3690   -54.4410 hc         1 XPK       0.058700
     32 H211       -17.9450   -38.4530   -51.1140 h1         1 XPK       0.061700
     33 H242       -20.1030   -39.7980   -51.1120 hc         1 XPK       0.048367
     34 H241       -20.1580   -38.3920   -52.1810 hc         1 XPK       0.048367
     35 H243       -19.9280   -40.0160   -52.8710 hc         1 XPK       0.048367
     36 H263       -19.2570   -36.3280   -55.4650 hc         1 XPK       0.035700
     37 H261       -19.0960   -38.0750   -55.6320 hc         1 XPK       0.035700
     38 H262       -19.7920   -37.3830   -54.1650 hc         1 XPK       0.035700
     39 H011       -18.0370   -33.4360   -57.0630 hc         1 XPK       0.034367
     40 H013       -18.5360   -32.5370   -55.6350 hc         1 XPK       0.034367
     41 H012       -17.7040   -31.7240   -56.9370 hc         1 XPK       0.034367
     42 H031       -16.9000   -31.7870   -53.8770 hc         1 XPK       0.043700
     43 H032       -15.1850   -32.1320   -53.9970 hc         1 XPK       0.043700
     44 H042       -15.5910   -29.7420   -54.4100 hc         1 XPK       0.053700
     45 H041       -16.7660   -30.0770   -55.6640 hc         1 XPK       0.053700
     46 H051       -15.4770   -34.5180   -54.3850 hc         1 XPK       0.045700
     47 H061       -17.4640   -33.8190   -53.0850 hc         1 XPK       0.040200
     48 H062       -18.5480   -34.3890   -54.3460 hc         1 XPK       0.040200
     49 H071       -16.6630   -36.0730   -52.6040 hc         1 XPK       0.039700
     50 H072       -18.4030   -36.0900   -52.5440 hc         1 XPK       0.039700
     51 H081       -17.4050   -35.4870   -56.5670 hc         1 XPK       0.047700
     52 H092       -15.4090   -36.2320   -57.8090 hc         1 XPK       0.041200
     53 H091       -14.3430   -35.6220   -56.5550 hc         1 XPK       0.041200
     54 H111       -14.2210   -33.1350   -56.1310 hc         1 XPK       0.046700
     55 H122       -15.7940   -31.2590   -57.9800 hc         1 XPK       0.055700
     56 H121       -14.0700   -31.5730   -58.0200 hc         1 XPK       0.055700
     57 H182       -14.4360   -37.8510   -55.2770 hc         1 XPK       0.045200
     58 H181       -14.6720   -36.5660   -54.1110 hc         1 XPK       0.045200
     59 H192       -15.3960   -38.0860   -52.5050 hc         1 XPK       0.047700
     60 H191       -15.1260   -39.4090   -53.6260 hc         1 XPK       0.047700
     61 C23        -17.0930   -41.4740   -51.1890 c1         1 XPK       0.497000
@<TRIPOS>BOND
     1     1    17 1   
     2     1    18 1   
     3     1    26 1   
     4     1    27 1   
     5     2    12 1   
     6     2    19 1   
     7     2    24 1   
     8     2    28 1   
     9     3    24 1   
    10     3    25 2   
    11     3    29 1   
    12     4    16 1   
    13     4    20 1   
    14     4    22 1   
    15     4    30 1   
    16     5     6 1   
    17     5    21 1   
    18     5    22 1   
    19     5    31 1   
    20     6     7 1   
    21     6    23 1   
    22     6    32 1   
    23     7    33 1   
    24     7    34 1   
    25     7    35 1   
    26     8    22 1   
    27     8    36 1   
    28     8    37 1   
    29     8    38 1   
    30     9    10 1   
    31     9    39 1   
    32     9    40 1   
    33     9    41 1   
    34    10    11 1   
    35    10    13 1   
    36    10    18 1   
    37    11    12 1   
    38    11    42 1   
    39    11    43 1   
    40    12    44 1   
    41    12    45 1   
    42    13    14 1   
    43    13    16 1   
    44    13    46 1   
    45    14    15 1   
    46    14    47 1   
    47    14    48 1   
    48    15    22 1   
    49    15    49 1   
    50    15    50 1   
    51    16    17 1   
    52    16    51 1   
    53    17    52 1   
    54    17    53 1   
    55    18    19 1   
    56    18    54 1   
    57    19    55 1   
    58    19    56 1   
    59    20    21 1   
    60    20    57 1   
    61    20    58 1   
    62    21    59 1   
    63    21    60 1   
    64    23    61 3   
@<TRIPOS>SUBSTRUCTURE
     1 XPK         1 TEMP              0 ****  ****    0 ROOT
