@<TRIPOS>MOLECULE
XPK
   61    64     1     0     0
SMALL
abcg2


@<TRIPOS>ATOM
      1 C10        -15.3260   -34.1360   -57.6970 c6         1 XPK      -0.068400
      2 C13        -14.7320   -30.6450   -56.1360 c6         1 XPK       0.170300
      3 C15        -13.3810   -28.9270   -57.1290 c          1 XPK       0.592900
      4 C17        -16.5690   -36.9870   -55.3510 c5         1 XPK      -0.056700
      5 C20        -17.2240   -38.4800   -53.5900 c5         1 XPK      -0.072700
      6 C21        -17.8120   -38.7870   -52.2030 c3         1 XPK       0.301800
      7 C24        -19.3250   -38.9860   -52.1410 c3         1 XPK      -0.101100
      8 C26        -19.0470   -37.2730   -54.9500 c3         1 XPK      -0.082100
      9 C01        -17.7590   -32.7330   -56.4110 c3         1 XPK      -0.082100
     10 C02        -16.4480   -33.0520   -55.6720 c6         1 XPK      -0.035000
     11 C03        -16.1950   -31.9740   -54.5970 c6         1 XPK      -0.068400
     12 C04        -15.9030   -30.5860   -55.1750 c6         1 XPK      -0.077400
     13 C05        -16.5120   -34.4550   -54.9980 c6         1 XPK      -0.047700
     14 C06        -17.6700   -34.6180   -54.0060 c6         1 XPK      -0.069400
     15 C07        -17.6300   -35.9720   -53.3000 c6         1 XPK      -0.065400
     16 C08        -16.5460   -35.6050   -56.0240 c6         1 XPK      -0.046700
     17 C09        -15.4050   -35.5110   -57.0400 c6         1 XPK      -0.071400
     18 C11        -15.2270   -33.0480   -56.6320 c6         1 XPK      -0.053700
     19 C12        -14.9480   -31.6690   -57.2360 c6         1 XPK      -0.091400
     20 C18        -15.2630   -37.4120   -54.6550 c5         1 XPK      -0.074400
     21 C19        -15.6800   -38.4030   -53.5500 c5         1 XPK      -0.075400
     22 C25        -17.6750   -37.1610   -54.2780 c5         1 XPK      -0.038000
     23 N22        -17.1820   -39.9840   -51.7020 n1         1 XPK      -0.932500
     24 O14        -14.5820   -29.3060   -56.7140 os         1 XPK      -0.462100
     25 O16        -12.3640   -29.5780   -57.0800 o          1 XPK      -0.492000
     26 H101       -14.4520   -34.0850   -58.3530 hc         1 XPK       0.042700
     27 H102       -16.2020   -33.9630   -58.3290 hc         1 XPK       0.042700
     28 H131       -13.8110   -30.8700   -55.5950 h1         1 XPK       0.064700
     29 H151       -13.4360   -27.9080   -57.5320 h5         1 XPK       0.053200
     30 H171       -16.7760   -37.7230   -56.1370 hc         1 XPK       0.046700
     31 H201       -17.5200   -39.3020   -54.2500 hc         1 XPK       0.058700
     32 H211       -17.5230   -37.9940   -51.5100 h1         1 XPK       0.061700
     33 H242       -19.6120   -39.3530   -51.1550 hc         1 XPK       0.048367
     34 H241       -19.8340   -38.0410   -52.3120 hc         1 XPK       0.048367
     35 H243       -19.6520   -39.7050   -52.8930 hc         1 XPK       0.048367
     36 H263       -19.2220   -36.4380   -55.6280 hc         1 XPK       0.035700
     37 H261       -19.1080   -38.1940   -55.5350 hc         1 XPK       0.035700
     38 H262       -19.8630   -37.2770   -54.2290 hc         1 XPK       0.035700
     39 H011       -18.0520   -33.5290   -57.0930 hc         1 XPK       0.034367
     40 H013       -18.5730   -32.5910   -55.6990 hc         1 XPK       0.034367
     41 H012       -17.6790   -31.8180   -56.9960 hc         1 XPK       0.034367
     42 H031       -17.0550   -31.9000   -53.9300 hc         1 XPK       0.043700
     43 H032       -15.3450   -32.2890   -53.9820 hc         1 XPK       0.043700
     44 H042       -15.6820   -29.8840   -54.3680 hc         1 XPK       0.053700
     45 H041       -16.7770   -30.2020   -55.7060 hc         1 XPK       0.053700
     46 H051       -15.5790   -34.5490   -54.4280 hc         1 XPK       0.045700
     47 H061       -17.6380   -33.8290   -53.2530 hc         1 XPK       0.040200
     48 H062       -18.6220   -34.5070   -54.5300 hc         1 XPK       0.040200
     49 H071       -16.7150   -36.0240   -52.7030 hc         1 XPK       0.039700
     50 H072       -18.4630   -36.0420   -52.5970 hc         1 XPK       0.039700
     51 H081       -17.4830   -35.5100   -56.5820 hc         1 XPK       0.047700
     52 H092       -15.5250   -36.2940   -57.7940 hc         1 XPK       0.041200
     53 H091       -14.4540   -35.7050   -56.5350 hc         1 XPK       0.041200
     54 H111       -14.3580   -33.2980   -56.0070 hc         1 XPK       0.046700
     55 H122       -15.7790   -31.3470   -57.8690 hc         1 XPK       0.055700
     56 H121       -14.0610   -31.7240   -57.8700 hc         1 XPK       0.055700
     57 H182       -14.5660   -37.8610   -55.3620 hc         1 XPK       0.045200
     58 H181       -14.7570   -36.5490   -54.2200 hc         1 XPK       0.045200
     59 H192       -15.3480   -38.0510   -52.5710 hc         1 XPK       0.047700
     60 H191       -15.2400   -39.3880   -53.6950 hc         1 XPK       0.047700
     61 C23        -16.6920   -40.9660   -51.3190 c1         1 XPK       0.497000
@<TRIPOS>BOND
     1     1    17 1   
     2     1    18 1   
     3     1    26 1   
     4     1    27 1   
     5     2    12 1   
     6     2    19 1   
     7     2    24 1   
     8     2    28 1   
     9     3    24 1   
    10     3    25 2   
    11     3    29 1   
    12     4    16 1   
    13     4    20 1   
    14     4    22 1   
    15     4    30 1   
    16     5     6 1   
    17     5    21 1   
    18     5    22 1   
    19     5    31 1   
    20     6     7 1   
    21     6    23 1   
    22     6    32 1   
    23     7    33 1   
    24     7    34 1   
    25     7    35 1   
    26     8    22 1   
    27     8    36 1   
    28     8    37 1   
    29     8    38 1   
    30     9    10 1   
    31     9    39 1   
    32     9    40 1   
    33     9    41 1   
    34    10    11 1   
    35    10    13 1   
    36    10    18 1   
    37    11    12 1   
    38    11    42 1   
    39    11    43 1   
    40    12    44 1   
    41    12    45 1   
    42    13    14 1   
    43    13    16 1   
    44    13    46 1   
    45    14    15 1   
    46    14    47 1   
    47    14    48 1   
    48    15    22 1   
    49    15    49 1   
    50    15    50 1   
    51    16    17 1   
    52    16    51 1   
    53    17    52 1   
    54    17    53 1   
    55    18    19 1   
    56    18    54 1   
    57    19    55 1   
    58    19    56 1   
    59    20    21 1   
    60    20    57 1   
    61    20    58 1   
    62    21    59 1   
    63    21    60 1   
    64    23    61 3   
@<TRIPOS>SUBSTRUCTURE
     1 XPK         1 TEMP              0 ****  ****    0 ROOT
