@<TRIPOS>MOLECULE
XPL
   42    42     1     0     0
SMALL
abcg2


@<TRIPOS>ATOM
      1 C           20.7270    91.2280    89.0620 c          1 XPL       0.715000
      2 N           18.4530    92.1210    88.9870 n8         1 XPL      -0.973200
      3 O           21.3060    92.1940    88.5260 o          1 XPL      -0.728000
      4 CA          19.2650    90.9580    88.6200 c3         1 XPL       0.023500
      5 CB          19.1190    90.7340    87.1150 c3         1 XPL      -0.055400
      6 CD          21.0170    88.9950    86.7000 c3         1 XPL      -0.091400
      7 CE          21.9020    89.8890    85.8470 c3         1 XPL       0.099000
      8 CG          19.5360    89.3530    86.6120 c3         1 XPL      -0.051400
      9 NZ          23.2770    89.4300    85.9080 ns         1 XPL      -0.494900
     10 OXT         21.1980    90.4700    89.9360 o          1 XPL      -0.728000
     11 C2          24.2840    90.0400    85.2650 c          1 XPL       0.606100
     12 N2          25.7730    88.0330    85.1390 n7         1 XPL      -0.840400
     13 O2          24.1100    91.0310    84.5670 o          1 XPL      -0.606100
     14 N3          28.0620    87.5070    84.7900 n8         1 XPL      -0.991200
     15 CA2         25.6690    89.4490    85.4740 c5         1 XPL       0.074500
     16 CD2         27.3610    88.5760    86.8830 c5         1 XPL      -0.108400
     17 CE2         27.0000    87.5550    85.7800 c5         1 XPL       0.383700
     18 CG2         26.1960    89.5680    86.9140 c5         1 XPL      -0.086700
     19 HN          17.4770    91.9060    88.8150 hn         1 XPL       0.362500
     20 HNA         18.5180    92.2840    89.9850 hn         1 XPL       0.362500
     21 HA          18.9240    90.0430    89.1300 h1         1 XPL      -0.003300
     22 HB          18.0610    90.8560    86.8560 hc         1 XPL       0.033200
     23 HBA         19.6460    91.5280    86.5790 hc         1 XPL       0.033200
     24 HD          21.1380    87.9600    86.3640 hc         1 XPL       0.045700
     25 HDA         21.3550    89.0240    87.7370 hc         1 XPL       0.045700
     26 HE          21.5540    89.8750    84.8100 h1         1 XPL       0.065200
     27 HEA         21.8430    90.9230    86.1940 h1         1 XPL       0.065200
     28 HG          18.9710    88.5970    87.1660 hc         1 XPL       0.015200
     29 HGA         19.2190    89.2540    85.5690 hc         1 XPL       0.015200
     30 HNZ         23.4770    88.6630    86.5310 hn         1 XPL       0.302500
     31 HN2         24.9860    87.5180    85.5130 hn         1 XPL       0.406000
     32 HN3         28.9380    87.2740    85.2440 hn         1 XPL       0.392500
     33 HN3A        27.8790    86.7560    84.1350 hn         1 XPL       0.392500
     34 HA2         26.3410    90.0090    84.8160 h1         1 XPL       0.100700
     35 HD2         27.5240    88.1030    87.8520 hc         1 XPL       0.050200
     36 HD2A        28.2850    89.0960    86.6110 hc         1 XPL       0.050200
     37 HE2         26.7860    86.5710    86.2160 h2         1 XPL       0.010700
     38 HG2         25.4270    89.1860    87.5950 hc         1 XPL       0.057700
     39 CB2         26.5700    90.9780    87.3330 c3         1 XPL      -0.079100
     40 HB2         26.9850    90.9920    88.3410 hc         1 XPL       0.043033
     41 HB2A        27.3200    91.3980    86.6590 hc         1 XPL       0.043033
     42 HB2B        25.7040    91.6410    87.3260 hc         1 XPL       0.043033
@<TRIPOS>BOND
     1     1     3 1   
     2     1     4 1   
     3     1    10 1   
     4     2     4 1   
     5     2    19 1   
     6     2    20 1   
     7     4     5 1   
     8     4    21 1   
     9     5     8 1   
    10     5    22 1   
    11     5    23 1   
    12     6     7 1   
    13     6     8 1   
    14     6    24 1   
    15     6    25 1   
    16     7     9 1   
    17     7    26 1   
    18     7    27 1   
    19     8    28 1   
    20     8    29 1   
    21     9    11 1   
    22     9    30 1   
    23    11    13 2   
    24    11    15 1   
    25    12    15 1   
    26    12    17 1   
    27    12    31 1   
    28    14    17 1   
    29    14    32 1   
    30    14    33 1   
    31    15    18 1   
    32    15    34 1   
    33    16    17 1   
    34    16    18 1   
    35    16    35 1   
    36    16    36 1   
    37    17    37 1   
    38    18    38 1   
    39    18    39 1   
    40    39    40 1   
    41    39    41 1   
    42    39    42 1   
@<TRIPOS>SUBSTRUCTURE
     1 XPL         1 TEMP              0 ****  ****    0 ROOT
