@<TRIPOS>MOLECULE
XPL
   42    42     1     0     0
SMALL
No Charge or Current Charge


@<TRIPOS>ATOM
      1 C           20.6460    90.6870    89.2450 c          1 XPL       0.715000
      2 N           18.2200    91.6670    89.1120 n8         1 XPL      -0.973200
      3 O           21.4000    91.6130    88.9700 o          1 XPL      -0.728000
      4 CA          19.1980    90.6460    88.5890 c3         1 XPL       0.023500
      5 CB          19.2240    90.6990    87.0320 c3         1 XPL      -0.055400
      6 CD          21.2400    89.0970    86.4080 c3         1 XPL      -0.091400
      7 CE          22.1470    90.1680    85.7700 c3         1 XPL       0.099000
      8 CG          19.7270    89.4130    86.3180 c3         1 XPL      -0.051400
      9 NZ          23.5520    89.7620    85.7900 ns         1 XPL      -0.494900
     10 OXT         20.9210    89.8340    90.0800 o          1 XPL      -0.728000
     11 C2          24.5810    90.4950    85.2320 c          1 XPL       0.606100
     12 N2          25.9640    88.2590    85.1020 n7         1 XPL      -0.840400
     13 O2          24.3990    91.5480    84.6330 o          1 XPL      -0.606100
     14 N3          26.9830    86.5040    85.6690 n8         1 XPL      -0.991200
     15 CA2         25.9520    89.7410    85.4290 c5         1 XPL       0.074500
     16 CD2         27.2760    88.5630    87.0240 c5         1 XPL      -0.108400
     17 CE2         26.3290    87.5770    86.3090 c5         1 XPL       0.383700
     18 CG2         26.4190    89.8460    86.9200 c5         1 XPL      -0.086700
     19 HN          17.2910    91.4790    88.7190 hn         1 XPL       0.362500
     20 HNA         18.0970    91.5270    90.1220 hn         1 XPL       0.362500
     21 HA          18.7600    89.6760    88.8610 h1         1 XPL      -0.003300
     22 HB          18.2010    90.8710    86.6760 hc         1 XPL       0.033200
     23 HBA         19.8030    91.5670    86.6950 hc         1 XPL       0.033200
     24 HD          21.4160    88.1450    85.8920 hc         1 XPL       0.045700
     25 HDA         21.5330    88.9350    87.4510 hc         1 XPL       0.045700
     26 HE          21.8420    90.3340    84.7270 h1         1 XPL       0.065200
     27 HEA         22.0480    91.1180    86.3110 h1         1 XPL       0.065200
     28 HG          19.1660    88.5540    86.7070 hc         1 XPL       0.015200
     29 HGA         19.4610    89.4880    85.2560 hc         1 XPL       0.015200
     30 HNZ         23.8080    88.9150    86.2800 hn         1 XPL       0.302500
     31 HN2         25.0340    87.9480    84.8020 hn         1 XPL       0.406000
     32 HN3         26.2890    86.0390    85.0840 hn         1 XPL       0.392500
     33 HN3A        27.6060    86.9560    84.9990 hn         1 XPL       0.392500
     34 HA2         26.6740    90.2540    84.7770 h1         1 XPL       0.100700
     35 HD2         27.4760    88.2710    88.0610 hc         1 XPL       0.050200
     36 HD2A        28.2400    88.6680    86.5110 hc         1 XPL       0.050200
     37 HE2         25.4550    87.3230    86.9230 h2         1 XPL       0.010700
     38 HG2         25.5680    89.7760    87.6090 hc         1 XPL       0.057700
     39 CB2         27.1660    91.1490    87.2800 c3         1 XPL      -0.079100
     40 HB2         27.5070    91.1320    88.3230 hc         1 XPL       0.043033
     41 HB2A        28.0470    91.2940    86.6430 hc         1 XPL       0.043033
     42 HB2B        26.5160    92.0240    87.1570 hc         1 XPL       0.043033
@<TRIPOS>BOND
     1     1     3 1   
     2     1     4 1   
     3     1    10 1   
     4     2     4 1   
     5     2    19 1   
     6     2    20 1   
     7     4     5 1   
     8     4    21 1   
     9     5     8 1   
    10     5    22 1   
    11     5    23 1   
    12     6     7 1   
    13     6     8 1   
    14     6    24 1   
    15     6    25 1   
    16     7     9 1   
    17     7    26 1   
    18     7    27 1   
    19     8    28 1   
    20     8    29 1   
    21     9    11 1   
    22     9    30 1   
    23    11    13 2   
    24    11    15 1   
    25    12    15 1   
    26    12    17 1   
    27    12    31 1   
    28    14    17 1   
    29    14    32 1   
    30    14    33 1   
    31    15    18 1   
    32    15    34 1   
    33    16    17 1   
    34    16    18 1   
    35    16    35 1   
    36    16    36 1   
    37    17    37 1   
    38    18    38 1   
    39    18    39 1   
    40    39    40 1   
    41    39    41 1   
    42    39    42 1   
@<TRIPOS>SUBSTRUCTURE
     1 XPL         1 TEMP              0 ****  ****    0 ROOT
