@<TRIPOS>MOLECULE
XPM
   51    50     1     0     0
SMALL
bcc


@<TRIPOS>ATOM
      1 C1           6.3340    -1.2250     0.1460 c          1 XPM       0.950600
      2 O1           6.3860    -1.1910     1.3950 o          1 XPM      -0.881050
      3 C2           6.0520     0.1180    -0.5530 c3         1 XPM      -0.306700
      4 O2           6.4970    -2.2400    -0.5630 o          1 XPM      -0.881050
      5 C3           4.7690     0.7610    -0.0450 c3         1 XPM      -0.022400
      6 C4           3.5220    -0.0800    -0.2910 c3         1 XPM      -0.076400
      7 C5           2.2350     0.6340     0.1060 c3         1 XPM      -0.074400
      8 C6           0.9770    -0.1740    -0.1880 c3         1 XPM      -0.076400
      9 C7          -0.3050     0.5050     0.2780 c3         1 XPM      -0.074400
     10 C8          -1.5670    -0.2280    -0.1600 c3         1 XPM      -0.075400
     11 C9          -2.8500     0.4020     0.3660 c3         1 XPM      -0.074400
     12 CA          -4.1100    -0.2630    -0.1740 c3         1 XPM      -0.075400
     13 CB          -5.3980     0.3470     0.3640 c3         1 XPM      -0.074400
     14 CC          -6.6530    -0.2870    -0.2230 c3         1 XPM      -0.074400
     15 CD          -7.9440     0.3200     0.3100 c3         1 XPM      -0.074400
     16 CE          -9.1960    -0.3060    -0.2900 c3         1 XPM      -0.075400
     17 CF         -10.4890     0.2980     0.2420 c3         1 XPM      -0.075400
     18 CG         -11.7350    -0.3360    -0.3630 c3         1 XPM      -0.087100
     19 C2A          7.3050     1.0020    -0.3730 c          1 XPM       0.950600
     20 O2A          7.1800     2.1100     0.1860 o          1 XPM      -0.881050
     21 O2B          8.3750     0.5240    -0.8110 o          1 XPM      -0.881050
     22 H2           5.9440    -0.0720    -1.6280 hc         1 XPM       0.011700
     23 H3           4.8650     0.9670     1.0230 hc         1 XPM       0.022200
     24 H3A          4.6340     1.7340    -0.5280 hc         1 XPM       0.022200
     25 H4           3.4660    -0.3540    -1.3510 hc         1 XPM       0.034200
     26 H4A          3.5910    -1.0220     0.2640 hc         1 XPM       0.034200
     27 H5           2.2720     0.8810     1.1730 hc         1 XPM       0.023700
     28 H5A          2.1750     1.5920    -0.4230 hc         1 XPM       0.023700
     29 H6           0.9160    -0.3610    -1.2660 hc         1 XPM       0.032200
     30 H6A          1.0570    -1.1590     0.2840 hc         1 XPM       0.032200
     31 H7          -0.2920     0.5950     1.3700 hc         1 XPM       0.030200
     32 H7A         -0.3360     1.5310    -0.1070 hc         1 XPM       0.030200
     33 H8          -1.6010    -0.2550    -1.2550 hc         1 XPM       0.033700
     34 H8A         -1.5140    -1.2730     0.1640 hc         1 XPM       0.033700
     35 H9          -2.8540     0.3610     1.4610 hc         1 XPM       0.033200
     36 H9A         -2.8660     1.4660     0.1050 hc         1 XPM       0.033200
     37 HA          -4.1090    -0.1980    -1.2680 hc         1 XPM       0.035200
     38 HAA         -4.0880    -1.3330     0.0630 hc         1 XPM       0.035200
     39 HB          -5.4180     0.2540     1.4550 hc         1 XPM       0.035200
     40 HBA         -5.4040     1.4230     0.1540 hc         1 XPM       0.035200
     41 HC          -6.6300    -0.1890    -1.3140 hc         1 XPM       0.035700
     42 HCA         -6.6460    -1.3630    -0.0180 hc         1 XPM       0.035700
     43 HD          -7.9730     0.2140     1.4010 hc         1 XPM       0.035700
     44 HDA         -7.9470     1.3980     0.1140 hc         1 XPM       0.035700
     45 HE          -9.1680    -0.1990    -1.3810 hc         1 XPM       0.035700
     46 HEA         -9.1930    -1.3840    -0.0950 hc         1 XPM       0.035700
     47 HF         -10.5170     0.1920     1.3310 hc         1 XPM       0.035700
     48 HFA        -10.4930     1.3750     0.0440 hc         1 XPM       0.035700
     49 HG         -11.7520    -0.2150    -1.4480 hc         1 XPM       0.028033
     50 HGA        -11.7740    -1.4060    -0.1530 hc         1 XPM       0.028033
     51 HGB        -12.6460     0.1130     0.0340 hc         1 XPM       0.028033
@<TRIPOS>BOND
     1     1     2 1   
     2     1     3 1   
     3     1     4 1   
     4     3     5 1   
     5     3    19 1   
     6     3    22 1   
     7     5     6 1   
     8     5    23 1   
     9     5    24 1   
    10     6     7 1   
    11     6    25 1   
    12     6    26 1   
    13     7     8 1   
    14     7    27 1   
    15     7    28 1   
    16     8     9 1   
    17     8    29 1   
    18     8    30 1   
    19     9    10 1   
    20     9    31 1   
    21     9    32 1   
    22    10    11 1   
    23    10    33 1   
    24    10    34 1   
    25    11    12 1   
    26    11    35 1   
    27    11    36 1   
    28    12    13 1   
    29    12    37 1   
    30    12    38 1   
    31    13    14 1   
    32    13    39 1   
    33    13    40 1   
    34    14    15 1   
    35    14    41 1   
    36    14    42 1   
    37    15    16 1   
    38    15    43 1   
    39    15    44 1   
    40    16    17 1   
    41    16    45 1   
    42    16    46 1   
    43    17    18 1   
    44    17    47 1   
    45    17    48 1   
    46    18    49 1   
    47    18    50 1   
    48    18    51 1   
    49    19    20 1   
    50    19    21 1   
@<TRIPOS>SUBSTRUCTURE
     1 XPM         1 TEMP              0 ****  ****    0 ROOT
