@<TRIPOS>MOLECULE
XPM
   51    50     1     0     0
SMALL
No Charge or Current Charge


@<TRIPOS>ATOM
      1 C1           6.4400    -1.3230     0.1780 c          1 XPM       0.740000
      2 O1           6.4150    -1.4840     1.3890 o          1 XPM      -0.775750
      3 C2           6.1840     0.0620    -0.4080 c3         1 XPM      -0.306700
      4 O2           6.6040    -2.2480    -0.6040 o          1 XPM      -0.775750
      5 C3           4.8650     0.7230     0.0820 c3         1 XPM      -0.022400
      6 C4           3.5900    -0.0400    -0.3480 c3         1 XPM      -0.076400
      7 C5           2.2870     0.6500     0.1150 c3         1 XPM      -0.074400
      8 C6           1.0140    -0.1100    -0.3160 c3         1 XPM      -0.076400
      9 C7          -0.2880     0.5810     0.1470 c3         1 XPM      -0.074400
     10 C8          -1.5620    -0.1790    -0.2840 c3         1 XPM      -0.075400
     11 C9          -2.8630     0.5110     0.1780 c3         1 XPM      -0.074400
     12 CA          -4.1370    -0.2490    -0.2520 c3         1 XPM      -0.075400
     13 CB          -5.4390     0.4420     0.2110 c3         1 XPM      -0.074400
     14 CC          -6.7120    -0.3190    -0.2200 c3         1 XPM      -0.074400
     15 CD          -8.0140     0.3720     0.2430 c3         1 XPM      -0.074400
     16 CE          -9.2870    -0.3880    -0.1870 c3         1 XPM      -0.075400
     17 CF         -10.5890     0.3020     0.2760 c3         1 XPM      -0.075400
     18 CG         -11.8600    -0.4570    -0.1530 c3         1 XPM      -0.087100
     19 C2A          7.4180     0.9100    -0.1240 c          1 XPM       0.740000
     20 O2A          7.6280     1.3140     1.0100 o          1 XPM      -0.775750
     21 O2B          8.1200     1.2250    -1.0740 o          1 XPM      -0.775750
     22 H2           6.1280    -0.0580    -1.4980 hc         1 XPM       0.011700
     23 H3           4.8780     0.8170     1.1750 hc         1 XPM       0.022200
     24 H3A          4.8160     1.7420    -0.3210 hc         1 XPM       0.022200
     25 H4           3.5780    -0.1330    -1.4410 hc         1 XPM       0.034200
     26 H4A          3.6190    -1.0580     0.0600 hc         1 XPM       0.034200
     27 H5           2.2980     0.7430     1.2080 hc         1 XPM       0.023700
     28 H5A          2.2540     1.6680    -0.2940 hc         1 XPM       0.023700
     29 H6           1.0030    -0.2040    -1.4090 hc         1 XPM       0.032200
     30 H6A          1.0460    -1.1280     0.0930 hc         1 XPM       0.032200
     31 H7          -0.2770     0.6740     1.2400 hc         1 XPM       0.030200
     32 H7A         -0.3210     1.5980    -0.2620 hc         1 XPM       0.030200
     33 H8          -1.5730    -0.2730    -1.3770 hc         1 XPM       0.033700
     34 H8A         -1.5290    -1.1970     0.1250 hc         1 XPM       0.033700
     35 H9          -2.8520     0.6050     1.2720 hc         1 XPM       0.033200
     36 H9A         -2.8960     1.5290    -0.2310 hc         1 XPM       0.033200
     37 HA          -4.1480    -0.3430    -1.3450 hc         1 XPM       0.035200
     38 HAA         -4.1040    -1.2670     0.1570 hc         1 XPM       0.035200
     39 HB          -5.4270     0.5360     1.3040 hc         1 XPM       0.035200
     40 HBA         -5.4710     1.4590    -0.1980 hc         1 XPM       0.035200
     41 HC          -6.7230    -0.4120    -1.3130 hc         1 XPM       0.035700
     42 HCA         -6.6790    -1.3360     0.1890 hc         1 XPM       0.035700
     43 HD          -8.0020     0.4660     1.3370 hc         1 XPM       0.035700
     44 HDA         -8.0470     1.3900    -0.1660 hc         1 XPM       0.035700
     45 HE          -9.2990    -0.4820    -1.2800 hc         1 XPM       0.035700
     46 HEA         -9.2550    -1.4060     0.2220 hc         1 XPM       0.035700
     47 HF         -10.5820     0.3960     1.3690 hc         1 XPM       0.035700
     48 HFA        -10.6260     1.3190    -0.1330 hc         1 XPM       0.035700
     49 HG         -11.9140    -0.5370    -1.2450 hc         1 XPM       0.028033
     50 HGA        -11.8690    -1.4690     0.2700 hc         1 XPM       0.028033
     51 HGB        -12.7560     0.0700     0.1970 hc         1 XPM       0.028033
@<TRIPOS>BOND
     1     1     2 1   
     2     1     3 1   
     3     1     4 1   
     4     3     5 1   
     5     3    19 1   
     6     3    22 1   
     7     5     6 1   
     8     5    23 1   
     9     5    24 1   
    10     6     7 1   
    11     6    25 1   
    12     6    26 1   
    13     7     8 1   
    14     7    27 1   
    15     7    28 1   
    16     8     9 1   
    17     8    29 1   
    18     8    30 1   
    19     9    10 1   
    20     9    31 1   
    21     9    32 1   
    22    10    11 1   
    23    10    33 1   
    24    10    34 1   
    25    11    12 1   
    26    11    35 1   
    27    11    36 1   
    28    12    13 1   
    29    12    37 1   
    30    12    38 1   
    31    13    14 1   
    32    13    39 1   
    33    13    40 1   
    34    14    15 1   
    35    14    41 1   
    36    14    42 1   
    37    15    16 1   
    38    15    43 1   
    39    15    44 1   
    40    16    17 1   
    41    16    45 1   
    42    16    46 1   
    43    17    18 1   
    44    17    47 1   
    45    17    48 1   
    46    18    49 1   
    47    18    50 1   
    48    18    51 1   
    49    19    20 1   
    50    19    21 1   
@<TRIPOS>SUBSTRUCTURE
     1 XPM         1 TEMP              0 ****  ****    0 ROOT
