@<TRIPOS>MOLECULE
XPN
   31    32     1     0     0
SMALL
abcg2


@<TRIPOS>ATOM
      1 O1          15.0380     1.2930     9.6950 o          1 XPN      -0.893833
      2 C3          19.4440    -0.9880    10.5390 cc         1 XPN      -0.055400
      3 C4          18.7850     1.5200    10.1500 ca         1 XPN       0.370100
      4 C5          19.3640     2.7660     9.9120 ca         1 XPN      -0.269000
      5 C6          20.7540     2.9220     9.8160 ca         1 XPN      -0.035000
      6 C7          21.6270     1.8610     9.9440 ca         1 XPN      -0.298000
      7 C8          21.0500     0.6110    10.1880 ca         1 XPN      -0.003200
      8 C9          19.6570     0.4170    10.3010 ca         1 XPN      -0.188800
      9 N           16.4350    -2.2380    12.4980 n7         1 XPN      -0.883400
     10 CA          17.6640    -1.5120    12.2280 c3         1 XPN       0.166800
     11 C2          20.6850    -1.5580    10.5540 cd         1 XPN      -0.273100
     12 CM          15.2580    -1.6140    11.9270 c3         1 XPN       0.134100
     13 N1          21.6450    -0.6050    10.3440 na         1 XPN      -0.253700
     14 O2          16.2180     3.5620     9.9190 o          1 XPN      -0.893833
     15 O3          16.7320     2.0460     7.9060 o          1 XPN      -0.893833
     16 O4          17.4790     1.3050    10.2630 os         1 XPN      -0.413500
     17 P           16.2330     2.1570     9.3350 p5         1 XPN       1.250900
     18 H5          18.7230     3.6310     9.8160 ha         1 XPN       0.157000
     19 H6          21.1510     3.9130     9.6310 ha         1 XPN       0.066000
     20 H7          22.6990     1.9880     9.8630 ha         1 XPN       0.067000
     21 HN          16.3110    -2.2970    13.4990 hn         1 XPN       0.369000
     22 HA1         18.4310    -1.8810    12.9130 h1         1 XPN       0.029700
     23 HA2         17.5620    -0.4330    12.4190 h1         1 XPN       0.029700
     24 HB1         17.3980    -1.4030    10.0860 hc         1 XPN       0.051700
     25 HB2         18.3180    -2.7880    10.6370 hc         1 XPN       0.051700
     26 H2          20.9570    -2.5910    10.7010 h4         1 XPN       0.171000
     27 HM2         14.3650    -2.1260    12.2850 h1         1 XPN       0.042700
     28 HM1         15.1560    -0.5460    12.1650 h1         1 XPN       0.042700
     29 HM3         15.2620    -1.6970    10.8390 h1         1 XPN       0.042700
     30 H1          22.6350    -0.7780    10.3020 hn         1 XPN       0.308000
     31 CB          18.1640    -1.7170    10.7970 c3         1 XPN       0.004800
@<TRIPOS>BOND
     1     1    17 1   
     2     2     8 1   
     3     2    11 2   
     4     2    31 1   
     5     3     4 ar  
     6     3     8 ar  
     7     3    16 1   
     8     4     5 ar  
     9     4    18 1   
    10     5     6 ar  
    11     5    19 1   
    12     6     7 ar  
    13     6    20 1   
    14     7     8 ar  
    15     7    13 1   
    16     9    10 1   
    17     9    12 1   
    18     9    21 1   
    19    10    22 1   
    20    10    23 1   
    21    10    31 1   
    22    11    13 1   
    23    11    26 1   
    24    12    27 1   
    25    12    28 1   
    26    12    29 1   
    27    13    30 1   
    28    14    17 1   
    29    15    17 1   
    30    16    17 1   
    31    24    31 1   
    32    25    31 1   
@<TRIPOS>SUBSTRUCTURE
     1 XPN         1 TEMP              0 ****  ****    0 ROOT
