@<TRIPOS>MOLECULE
XPN
   31    32     1     0     0
SMALL
No Charge or Current Charge


@<TRIPOS>ATOM
      1 O1          14.9830     1.5280     9.8460 o          1 XPN      -0.893833
      2 C3          19.5130    -1.0010    10.6110 cc         1 XPN      -0.055400
      3 C4          18.8370     1.4310     9.9650 ca         1 XPN       0.370100
      4 C5          19.3910     2.6910     9.6260 ca         1 XPN      -0.269000
      5 C6          20.7890     2.8740     9.5650 ca         1 XPN      -0.035000
      6 C7          21.6520     1.7980     9.8370 ca         1 XPN      -0.298000
      7 C8          21.0910     0.5630    10.1720 ca         1 XPN      -0.003200
      8 C9          19.7370     0.3790    10.2430 ca         1 XPN      -0.188800
      9 N           16.3890    -2.1570    12.5600 n7         1 XPN      -0.883400
     10 CA          17.5940    -1.3500    12.2430 c3         1 XPN       0.166800
     11 C2          20.7770    -1.5710    10.7300 cd         1 XPN      -0.273100
     12 CM          15.1790    -1.8480    11.7630 c3         1 XPN       0.134100
     13 N1          21.7690    -0.6020    10.4600 na         1 XPN      -0.253700
     14 O2          16.3340     3.3810    10.6370 o          1 XPN      -0.893833
     15 O3          16.4110     2.7260     8.2950 o          1 XPN      -0.893833
     16 O4          17.4860     1.1980    10.0230 os         1 XPN      -0.413500
     17 P           16.2900     2.2270     9.6950 p5         1 XPN       1.250900
     18 H5          18.7490     3.5370     9.4070 ha         1 XPN       0.157000
     19 H6          21.1990     3.8470     9.3020 ha         1 XPN       0.066000
     20 H7          22.7300     1.9260     9.7860 ha         1 XPN       0.067000
     21 HN          16.1570    -1.9880    13.5470 hn         1 XPN       0.369000
     22 HA1         18.3640    -1.5410    13.0030 h1         1 XPN       0.029700
     23 HA2         17.3630    -0.2760    12.2840 h1         1 XPN       0.029700
     24 HB1         17.4900    -1.4460    10.0660 hc         1 XPN       0.051700
     25 HB2         18.3500    -2.7830    10.8060 hc         1 XPN       0.051700
     26 H2          21.0370    -2.5910    11.0000 h4         1 XPN       0.171000
     27 HM2         14.3320    -2.4650    12.0930 h1         1 XPN       0.042700
     28 HM1         14.8920    -0.7930    11.8760 h1         1 XPN       0.042700
     29 HM3         15.3400    -2.0470    10.6950 h1         1 XPN       0.042700
     30 H1          22.7760    -0.7300    10.4760 hn         1 XPN       0.308000
     31 CB          18.1990    -1.6990    10.8620 c3         1 XPN       0.004800
@<TRIPOS>BOND
     1     1    17 1   
     2     2     8 1   
     3     2    11 2   
     4     2    31 1   
     5     3     4 ar  
     6     3     8 ar  
     7     3    16 1   
     8     4     5 ar  
     9     4    18 1   
    10     5     6 ar  
    11     5    19 1   
    12     6     7 ar  
    13     6    20 1   
    14     7     8 ar  
    15     7    13 1   
    16     9    10 1   
    17     9    12 1   
    18     9    21 1   
    19    10    22 1   
    20    10    23 1   
    21    10    31 1   
    22    11    13 1   
    23    11    26 1   
    24    12    27 1   
    25    12    28 1   
    26    12    29 1   
    27    13    30 1   
    28    14    17 1   
    29    15    17 1   
    30    16    17 1   
    31    24    31 1   
    32    25    31 1   
@<TRIPOS>SUBSTRUCTURE
     1 XPN         1 TEMP              0 ****  ****    0 ROOT
