@<TRIPOS>MOLECULE
XPO
    8     7     1     0     0
SMALL
abcg2


@<TRIPOS>ATOM
      1 C            1.8010     0.1440    -0.0960 c          1 XPO       0.654900
      2 O            2.9510    -0.1160     0.1950 o          1 XPO      -0.673000
      3 P           -0.8930     0.0710    -0.0540 p5         1 XPO       1.276900
      4 O1          -1.6860    -0.9480     0.7300 o          1 XPO      -0.903500
      5 O2           0.7780    -0.4360     0.4420 os         1 XPO      -0.500500
      6 O3          -0.8430    -0.1100    -1.5560 o          1 XPO      -0.903500
      7 O4          -0.9390     1.5000     0.4420 o          1 XPO      -0.903500
      8 H1           1.5710     0.9080    -0.8560 h5         1 XPO      -0.046800
@<TRIPOS>BOND
     1     1     2 2   
     2     1     5 1   
     3     1     8 1   
     4     3     4 1   
     5     3     5 1   
     6     3     6 1   
     7     3     7 1   
@<TRIPOS>SUBSTRUCTURE
     1 XPO         1 TEMP              0 ****  ****    0 ROOT
