@<TRIPOS>MOLECULE
XPO
    8     7     1     0     0
SMALL
No Charge or Current Charge


@<TRIPOS>ATOM
      1 C            1.8200     0.0590    -0.1720 c          1 XPO       0.654900
      2 O            2.9550    -0.0560     0.2820 o          1 XPO      -0.673000
      3 P           -0.7440     0.1640     0.0610 p5         1 XPO       1.276900
      4 O1          -1.5120    -1.0640     0.4040 o          1 XPO      -0.903500
      5 O2           0.7410     0.0160     0.6320 os         1 XPO      -0.500500
      6 O3          -0.7540     0.3480    -1.4160 o          1 XPO      -0.903500
      7 O4          -1.3870     1.3430     0.7030 o          1 XPO      -0.903500
      8 H1           1.6210     0.2030    -1.2480 h5         1 XPO      -0.046800
@<TRIPOS>BOND
     1     1     2 2   
     2     1     5 1   
     3     1     8 1   
     4     3     4 1   
     5     3     5 1   
     6     3     6 1   
     7     3     7 1   
@<TRIPOS>SUBSTRUCTURE
     1 XPO         1 TEMP              0 ****  ****    0 ROOT
