@<TRIPOS>MOLECULE
XPS
   30    29     1     0     0
SMALL
No Charge or Current Charge


@<TRIPOS>ATOM
      1 C1         133.1290   131.7320   104.4900 c3         1 XPS       0.109300
      2 C2         135.3990   132.6360   103.5050 c3         1 XPS       0.137300
      3 C3         131.9170   131.9810   105.4570 c3         1 XPS       0.128300
      4 C4         136.3860   133.8450   103.4630 c3         1 XPS       0.162800
      5 C5         131.0200   133.1980   105.0590 c3         1 XPS       0.164600
      6 C6         137.2570   133.6540   101.1110 c3         1 XPS       0.143100
      7 N          137.5410   133.5930   102.5580 n7         1 XPS      -0.859400
      8 C          134.1950   132.8850   104.4840 c3         1 XPS       0.163300
      9 O          134.6580   133.0970   105.8310 oh         1 XPS      -0.723000
     10 O1         132.6260   131.5140   103.1620 oh         1 XPS      -0.701000
     11 O2         136.1210   131.4170   103.8270 oh         1 XPS      -0.719000
     12 O3         132.3910   132.1490   106.8120 oh         1 XPS      -0.728000
     13 O4         130.5140   133.0550   103.7160 oh         1 XPS      -0.712000
     14 H1         133.6300   130.8160   104.8320 h1         1 XPS       0.033700
     15 H2         134.9730   132.5410   102.4970 h1         1 XPS       0.046700
     16 H3         131.2840   131.0840   105.4130 h1         1 XPS       0.042700
     17 H4         136.7520   134.0200   104.4840 h1         1 XPS       0.066700
     18 H5         135.8400   134.7500   103.1610 h1         1 XPS       0.066700
     19 H6         131.6030   134.1250   105.1470 h1         1 XPS       0.034700
     20 H7         130.1850   133.2660   105.7680 h1         1 XPS       0.034700
     21 H8         138.1710   133.4650   100.5320 h1         1 XPS       0.025367
     22 H9         136.5110   132.9020   100.8200 h1         1 XPS       0.025367
     23 H10        136.8760   134.6450   100.8290 h1         1 XPS       0.025367
     24 H11        137.8630   132.6400   102.7800 hn         1 XPS       0.421000
     25 H13        133.6870   133.7950   104.1360 h1         1 XPS       0.050700
     26 H14        133.8940   132.7790   106.3960 ho         1 XPS       0.523000
     27 H15        131.7760   132.0400   103.1300 ho         1 XPS       0.508000
     28 H16        135.4810   130.6760   103.7240 ho         1 XPS       0.498000
     29 H17        131.6430   131.9220   107.4170 ho         1 XPS       0.517000
     30 H18        129.8270   133.7560   103.5920 ho         1 XPS       0.511000
@<TRIPOS>BOND
     1     1     3 1   
     2     1     8 1   
     3     1    10 1   
     4     1    14 1   
     5     2     4 1   
     6     2     8 1   
     7     2    11 1   
     8     2    15 1   
     9     3     5 1   
    10     3    12 1   
    11     3    16 1   
    12     4     7 1   
    13     4    17 1   
    14     4    18 1   
    15     5    13 1   
    16     5    19 1   
    17     5    20 1   
    18     6     7 1   
    19     6    21 1   
    20     6    22 1   
    21     6    23 1   
    22     7    24 1   
    23     8     9 1   
    24     8    25 1   
    25     9    26 1   
    26    10    27 1   
    27    11    28 1   
    28    12    29 1   
    29    13    30 1   
@<TRIPOS>SUBSTRUCTURE
     1 XPS         1 TEMP              0 ****  ****    0 ROOT
