@<TRIPOS>MOLECULE
XPS
   30    29     1     0     0
SMALL
abcg2


@<TRIPOS>ATOM
      1 C1         133.0680   131.8070   104.4900 c3         1 XPS       0.109300
      2 C2         135.2690   132.6210   103.5080 c3         1 XPS       0.137300
      3 C3         131.8290   132.1210   105.3590 c3         1 XPS       0.128300
      4 C4         136.3370   133.7150   103.5490 c3         1 XPS       0.162800
      5 C5         131.1080   133.4310   105.0720 c3         1 XPS       0.164600
      6 C6         137.1320   133.5670   101.2450 c3         1 XPS       0.143100
      7 N          137.4630   133.5240   102.6550 n7         1 XPS      -0.859400
      8 C          134.0780   132.9590   104.4120 c3         1 XPS       0.163300
      9 O          134.5510   133.2960   105.6960 oh         1 XPS      -0.723000
     10 O1         132.7160   131.4620   103.1740 oh         1 XPS      -0.701000
     11 O2         135.8960   131.4040   103.8660 oh         1 XPS      -0.719000
     12 O3         132.2000   132.2010   106.7290 oh         1 XPS      -0.728000
     13 O4         130.6180   133.4260   103.7550 oh         1 XPS      -0.712000
     14 H1         133.5730   130.9610   104.9850 h1         1 XPS       0.033700
     15 H2         134.8790   132.5640   102.4860 h1         1 XPS       0.046700
     16 H3         131.1130   131.2980   105.2120 h1         1 XPS       0.042700
     17 H4         136.7280   133.8020   104.5660 h1         1 XPS       0.066700
     18 H5         135.8660   134.6740   103.3130 h1         1 XPS       0.066700
     19 H6         131.7880   134.2750   105.2520 h1         1 XPS       0.034700
     20 H7         130.2950   133.5240   105.8050 h1         1 XPS       0.034700
     21 H8         138.0410   133.4420   100.6550 h1         1 XPS       0.025367
     22 H9         136.4140   132.8100   100.9040 h1         1 XPS       0.025367
     23 H10        136.7150   134.5450   100.9970 h1         1 XPS       0.025367
     24 H11        137.9060   132.6400   102.8700 hn         1 XPS       0.421000
     25 H13        133.5770   133.8230   103.9430 h1         1 XPS       0.050700
     26 H14        133.8460   133.1310   106.3380 ho         1 XPS       0.523000
     27 H15        132.1230   130.7050   103.2010 ho         1 XPS       0.508000
     28 H16        135.4190   130.6820   103.4480 ho         1 XPS       0.498000
     29 H17        132.4750   131.3270   107.0270 ho         1 XPS       0.517000
     30 H18        130.1270   134.2420   103.6220 ho         1 XPS       0.511000
@<TRIPOS>BOND
     1     1     3 1   
     2     1     8 1   
     3     1    10 1   
     4     1    14 1   
     5     2     4 1   
     6     2     8 1   
     7     2    11 1   
     8     2    15 1   
     9     3     5 1   
    10     3    12 1   
    11     3    16 1   
    12     4     7 1   
    13     4    17 1   
    14     4    18 1   
    15     5    13 1   
    16     5    19 1   
    17     5    20 1   
    18     6     7 1   
    19     6    21 1   
    20     6    22 1   
    21     6    23 1   
    22     7    24 1   
    23     8     9 1   
    24     8    25 1   
    25     9    26 1   
    26    10    27 1   
    27    11    28 1   
    28    12    29 1   
    29    13    30 1   
@<TRIPOS>SUBSTRUCTURE
     1 XPS         1 TEMP              0 ****  ****    0 ROOT
