@<TRIPOS>MOLECULE
XPV
   30    32     1     0     0
SMALL
No Charge or Current Charge


@<TRIPOS>ATOM
      1 O           21.0480    -6.4990    -0.8560 o          1 XPV      -0.730500
      2 C10         17.5470   -14.8530     6.6650 ca         1 XPV      -0.125000
      3 C11         18.1700   -13.6670     7.0830 ca         1 XPV      -0.115500
      4 C12         18.5470   -12.6980     6.1370 ca         1 XPV      -0.106500
      5 O2          21.2800    -9.2850     2.9390 os         1 XPV      -0.199200
      6 C13         17.9290   -11.6330     2.5670 ca         1 XPV      -0.138000
      7 C14         18.2920   -10.6640     1.6060 ca         1 XPV      -0.060000
      8 O1          19.1360    -5.9980    -0.0030 o          1 XPV      -0.730500
      9 C2          20.0830    -8.8680     1.0490 cc         1 XPV      -0.072400
     10 C1          19.6230    -8.3070    -0.2760 c3         1 XPV      -0.161200
     11 C           19.9440    -6.8090    -0.4330 c          1 XPV       0.727000
     12 C3          21.2120    -8.5310     1.7910 cd         1 XPV      -0.057900
     13 C4          20.2120   -10.1230     2.9610 ca         1 XPV       0.045100
     14 C5          19.8830   -11.0730     3.9320 ca         1 XPV      -0.098000
     15 C6          18.7100   -11.8580     3.7440 cp         1 XPV      -0.054000
     16 C7          18.3080   -12.8920     4.7520 cp         1 XPV      -0.005000
     17 C8          17.6770   -14.0990     4.3540 ca         1 XPV      -0.106500
     18 C9          17.3010   -15.0690     5.3000 ca         1 XPV      -0.115500
     19 C15         19.4530    -9.9160     1.8360 ca         1 XPV      -0.099800
     20 H3          19.0150   -11.7810     6.4840 ha         1 XPV       0.116000
     21 H4          17.0210   -12.2090     2.4040 ha         1 XPV       0.101000
     22 H5          17.6870   -10.5050     0.7170 ha         1 XPV       0.122000
     23 H7          18.5370    -8.4490    -0.3120 hc         1 XPV       0.032700
     24 H8          20.1580    -8.8800    -1.0430 hc         1 XPV       0.032700
     25 H9          22.0000    -7.8050     1.6060 h4         1 XPV       0.259000
     26 H10         20.5240   -11.2090     4.7980 ha         1 XPV       0.116000
     27 H11         17.4900   -14.2920     3.3010 ha         1 XPV       0.116000
     28 H12         16.8220   -15.9890     4.9730 ha         1 XPV       0.103500
     29 H1          17.2560   -15.6040     7.3960 ha         1 XPV       0.102000
     30 H2          18.3590   -13.4960     8.1410 ha         1 XPV       0.103500
@<TRIPOS>BOND
     1     1    11 1   
     2     2     3 ar  
     3     2    18 ar  
     4     2    29 1   
     5     3     4 ar  
     6     3    30 1   
     7     4    16 ar  
     8     4    20 1   
     9     5    12 1   
    10     5    13 1   
    11     6     7 ar  
    12     6    15 ar  
    13     6    21 1   
    14     7    19 ar  
    15     7    22 1   
    16     8    11 1   
    17     9    10 1   
    18     9    12 2   
    19     9    19 1   
    20    10    11 1   
    21    10    23 1   
    22    10    24 1   
    23    12    25 1   
    24    13    14 ar  
    25    13    19 ar  
    26    14    15 ar  
    27    14    26 1   
    28    15    16 1   
    29    16    17 ar  
    30    17    18 ar  
    31    17    27 1   
    32    18    28 1   
@<TRIPOS>SUBSTRUCTURE
     1 XPV         1 TEMP              0 ****  ****    0 ROOT
