@<TRIPOS>MOLECULE
XPV
   30    32     1     0     0
SMALL
abcg2


@<TRIPOS>ATOM
      1 O           20.6660    -6.2160     0.2500 o          1 XPV      -0.730500
      2 C10         17.7150   -14.8420     6.6350 ca         1 XPV      -0.125000
      3 C11         18.4760   -13.7430     7.0120 ca         1 XPV      -0.115500
      4 C12         18.8060   -12.7680     6.0820 ca         1 XPV      -0.106500
      5 O2          21.4050    -9.5490     2.7340 os         1 XPV      -0.199200
      6 C13         17.8350   -11.4840     2.7460 ca         1 XPV      -0.138000
      7 C14         18.1360   -10.5350     1.7870 ca         1 XPV      -0.060000
      8 O1          18.8850    -6.1670    -1.0940 o          1 XPV      -0.730500
      9 C2          20.0470    -8.9020     1.0450 cc         1 XPV      -0.072400
     10 C1          19.4970    -8.2610    -0.1830 c3         1 XPV      -0.161200
     11 C           19.7000    -6.7320    -0.3400 c          1 XPV       0.727000
     12 C3          21.2490    -8.7420     1.6420 cd         1 XPV      -0.057900
     13 C4          20.2660   -10.2590     2.8530 ca         1 XPV       0.045100
     14 C5          19.9900   -11.2100     3.8170 ca         1 XPV      -0.098000
     15 C6          18.7470   -11.8380     3.7600 cp         1 XPV      -0.054000
     16 C7          18.3890   -12.8710     4.7530 cp         1 XPV      -0.005000
     17 C8          17.6250   -13.9830     4.3880 ca         1 XPV      -0.106500
     18 C9          17.2900   -14.9560     5.3180 ca         1 XPV      -0.115500
     19 C15         19.3810    -9.9080     1.8330 ca         1 XPV      -0.099800
     20 H3          19.3800   -11.9070     6.4020 ha         1 XPV       0.116000
     21 H4          16.8610   -11.9550     2.7260 ha         1 XPV       0.101000
     22 H5          17.4120   -10.2860     1.0210 ha         1 XPV       0.122000
     23 H7          18.4320    -8.4920    -0.2630 hc         1 XPV       0.032700
     24 H8          19.9540    -8.7260    -1.0650 hc         1 XPV       0.032700
     25 H9          22.0870    -8.1040     1.4160 h4         1 XPV       0.259000
     26 H10         20.7230   -11.4710     4.5700 ha         1 XPV       0.116000
     27 H11         17.3050   -14.1030     3.3600 ha         1 XPV       0.116000
     28 H12         16.7010   -15.8100     5.0090 ha         1 XPV       0.103500
     29 H1          17.4550   -15.6020     7.3600 ha         1 XPV       0.102000
     30 H2          18.8080   -13.6390     8.0370 ha         1 XPV       0.103500
@<TRIPOS>BOND
     1     1    11 1   
     2     2     3 ar  
     3     2    18 ar  
     4     2    29 1   
     5     3     4 ar  
     6     3    30 1   
     7     4    16 ar  
     8     4    20 1   
     9     5    12 1   
    10     5    13 1   
    11     6     7 ar  
    12     6    15 ar  
    13     6    21 1   
    14     7    19 ar  
    15     7    22 1   
    16     8    11 1   
    17     9    10 1   
    18     9    12 2   
    19     9    19 1   
    20    10    11 1   
    21    10    23 1   
    22    10    24 1   
    23    12    25 1   
    24    13    14 ar  
    25    13    19 ar  
    26    14    15 ar  
    27    14    26 1   
    28    15    16 1   
    29    16    17 ar  
    30    17    18 ar  
    31    17    27 1   
    32    18    28 1   
@<TRIPOS>SUBSTRUCTURE
     1 XPV         1 TEMP              0 ****  ****    0 ROOT
