@<TRIPOS>MOLECULE
XPW
   62    66     1     0     0
SMALL
No Charge or Current Charge


@<TRIPOS>ATOM
      1 C12        113.6470   113.3720   156.8340 c5         1 XPW       0.078000
      2 C13        114.7840   112.5090   156.2040 c5         1 XPW       0.169000
      3 C14        116.1340   113.2710   156.0870 c6         1 XPW      -0.069400
      4 C15        117.2430   112.4300   155.4080 c6         1 XPW      -0.067400
      5 C16        116.7960   111.9420   154.0060 c6         1 XPW      -0.073400
      6 C17        115.4630   111.1310   154.0360 c6         1 XPW      -0.052000
      7 C18        115.6870   109.7280   154.6980 c3         1 XPW      -0.088100
      8 C19        115.0080   110.8740   152.5530 c3         1 XPW       0.080600
      9 C23        111.6130   109.7210   152.0720 ca         1 XPW       0.087400
     10 C01        106.8190   113.4630   159.0140 c3         1 XPW      -0.115600
     11 C03        107.5310   112.6240   161.3020 c3         1 XPW      -0.115600
     12 O04        107.9380   114.8750   160.5990 oh         1 XPW      -0.668000
     13 C05        109.2920   113.1600   159.4810 ca         1 XPW       0.277300
     14 C06        110.0240   114.1260   158.7320 ca         1 XPW       0.356900
     15 N07        111.2230   113.8540   158.1410 nb         1 XPW      -0.709000
     16 C08        111.6990   112.5890   158.2960 ca         1 XPW       0.444900
     17 C09        110.9590   111.6120   159.0460 ca         1 XPW       0.290900
     18 N10        109.7580   111.8830   159.6320 nb         1 XPW      -0.629000
     19 N11        112.9760   112.3610   157.6690 n          1 XPW      -0.425300
     20 N20        113.7370   110.1420   152.3680 na         1 XPW      -0.174600
     21 C21        113.5280   108.7600   152.3500 cc         1 XPW       0.428700
     22 N22        112.2200   108.4710   152.1770 nd         1 XPW      -0.570100
     23 C24        110.2520   109.9950   151.8770 ca         1 XPW      -0.050000
     24 C25        109.8430   111.3430   151.7880 ca         1 XPW      -0.101000
     25 C26        110.7920   112.3920   151.8880 ca         1 XPW      -0.007000
     26 C27        112.1590   112.0900   152.0810 ca         1 XPW      -0.073000
     27 C28        112.5230   110.7370   152.1760 ca         1 XPW      -0.094200
     28 C29        110.3670   113.7620   151.7920 cg         1 XPW       0.323000
     29 N30        110.0300   114.8780   151.7180 n1         1 XPW      -0.455000
     30 C31        114.3760   111.9740   154.7920 c6         1 XPW      -0.080400
     31 O32        114.9220   111.4030   157.1230 os         1 XPW      -0.408100
     32 C33        113.7860   111.2480   157.8550 c          1 XPW       0.707100
     33 O34        113.5620   110.2920   158.5760 o          1 XPW      -0.514000
     34 H1         114.0460   114.1890   157.4520 h1         1 XPW       0.077700
     35 H2         112.9800   113.8030   156.0750 h1         1 XPW       0.077700
     36 H3         116.4690   113.5820   157.0850 hc         1 XPW       0.057200
     37 H4         115.9790   114.1970   155.5150 hc         1 XPW       0.057200
     38 H5         117.5180   111.5800   156.0470 hc         1 XPW       0.054200
     39 H6         118.1530   113.0380   155.3100 hc         1 XPW       0.054200
     40 H7         117.5960   111.3370   153.5570 hc         1 XPW       0.042700
     41 H8         116.6800   112.8190   153.3530 hc         1 XPW       0.042700
     42 H9         116.1850   109.7890   155.6700 hc         1 XPW       0.046700
     43 H10        114.7390   109.2020   154.8630 hc         1 XPW       0.046700
     44 H11        116.3160   109.0860   154.0690 hc         1 XPW       0.046700
     45 H12        115.7980   110.3090   152.0410 h1         1 XPW       0.061700
     46 H13        114.9320   111.8380   152.0350 h1         1 XPW       0.061700
     47 H14        106.7480   112.4500   158.5990 hc         1 XPW       0.047867
     48 H15        105.8360   113.7290   159.4230 hc         1 XPW       0.047867
     49 H16        107.0410   114.1510   158.1900 hc         1 XPW       0.047867
     50 H17        107.4070   111.5810   160.9870 hc         1 XPW       0.047867
     51 H18        108.3060   112.6560   162.0780 hc         1 XPW       0.047867
     52 H19        106.5850   112.9460   161.7550 hc         1 XPW       0.047867
     53 H20        107.0630   115.0480   161.0100 ho         1 XPW       0.452000
     54 H21        109.6390   115.1360   158.5970 h4         1 XPW       0.050100
     55 H22        111.3040   110.5900   159.1660 h4         1 XPW       0.059100
     56 H23        114.3340   108.0470   152.4720 h5         1 XPW       0.064800
     57 H24        109.5310   109.1860   151.7960 ha         1 XPW       0.137000
     58 H25        108.7890   111.5720   151.6390 ha         1 XPW       0.128000
     59 H26        112.8980   112.8840   152.1510 ha         1 XPW       0.125000
     60 H27        114.1180   112.8430   154.1720 hc         1 XPW       0.058700
     61 H28        113.4480   111.3920   154.8810 hc         1 XPW       0.058700
     62 C02        107.9150   113.5280   160.1010 c3         1 XPW       0.148700
@<TRIPOS>BOND
     1     1     2 1   
     2     1    19 1   
     3     1    34 1   
     4     1    35 1   
     5     2     3 1   
     6     2    30 1   
     7     2    31 1   
     8     3     4 1   
     9     3    36 1   
    10     3    37 1   
    11     4     5 1   
    12     4    38 1   
    13     4    39 1   
    14     5     6 1   
    15     5    40 1   
    16     5    41 1   
    17     6     7 1   
    18     6     8 1   
    19     6    30 1   
    20     7    42 1   
    21     7    43 1   
    22     7    44 1   
    23     8    20 1   
    24     8    45 1   
    25     8    46 1   
    26     9    22 1   
    27     9    23 ar  
    28     9    27 ar  
    29    10    47 1   
    30    10    48 1   
    31    10    49 1   
    32    10    62 1   
    33    11    50 1   
    34    11    51 1   
    35    11    52 1   
    36    11    62 1   
    37    12    53 1   
    38    12    62 1   
    39    13    14 ar  
    40    13    18 ar  
    41    13    62 1   
    42    14    15 ar  
    43    14    54 1   
    44    15    16 ar  
    45    16    17 ar  
    46    16    19 1   
    47    17    18 ar  
    48    17    55 1   
    49    19    32 1   
    50    20    21 1   
    51    20    27 1   
    52    21    22 2   
    53    21    56 1   
    54    23    24 ar  
    55    23    57 1   
    56    24    25 ar  
    57    24    58 1   
    58    25    26 ar  
    59    25    28 1   
    60    26    27 ar  
    61    26    59 1   
    62    28    29 3   
    63    30    60 1   
    64    30    61 1   
    65    31    32 1   
    66    32    33 2   
@<TRIPOS>SUBSTRUCTURE
     1 XPW         1 TEMP              0 ****  ****    0 ROOT
