@<TRIPOS>MOLECULE
XPW
   62    66     1     0     0
SMALL
abcg2


@<TRIPOS>ATOM
      1 C12        113.7440   113.2790   156.9420 c5         1 XPW       0.078000
      2 C13        114.8050   112.3930   156.2830 c5         1 XPW       0.169000
      3 C14        116.1830   113.0250   156.2970 c6         1 XPW      -0.069400
      4 C15        117.2180   112.2060   155.5380 c6         1 XPW      -0.067400
      5 C16        116.7600   111.9150   154.1140 c6         1 XPW      -0.073400
      6 C17        115.4030   111.1970   154.0540 c6         1 XPW      -0.052000
      7 C18        115.5400   109.7540   154.5400 c3         1 XPW      -0.088100
      8 C19        114.9820   111.1960   152.5720 c3         1 XPW       0.080600
      9 C23        111.7240   109.7110   151.9470 ca         1 XPW       0.087400
     10 C01        106.8940   113.0440   158.8740 c3         1 XPW      -0.115600
     11 C03        107.8390   113.2060   161.1960 c3         1 XPW      -0.115600
     12 O04        107.8860   115.0940   159.6880 oh         1 XPW      -0.668000
     13 C05        109.3390   113.3210   159.2080 ca         1 XPW       0.277300
     14 C06        110.2250   114.2460   158.6740 ca         1 XPW       0.356900
     15 N07        111.4040   113.8820   158.1870 nb         1 XPW      -0.709000
     16 C08        111.7290   112.6040   158.2180 ca         1 XPW       0.444900
     17 C09        110.8430   111.6580   158.7530 ca         1 XPW       0.290900
     18 N10        109.6760   112.0340   159.2320 nb         1 XPW      -0.629000
     19 N11        112.9560   112.2920   157.6530 n          1 XPW      -0.425300
     20 N20        113.7850   110.4330   152.2710 na         1 XPW      -0.174600
     21 C21        113.7530   109.1220   151.9260 cc         1 XPW       0.428700
     22 N22        112.5550   108.6480   151.7250 nd         1 XPW      -0.570100
     23 C24        110.3320   109.7840   151.8690 ca         1 XPW      -0.050000
     24 C25        109.7290   110.9940   152.1290 ca         1 XPW      -0.101000
     25 C26        110.5020   112.1260   152.4570 ca         1 XPW      -0.007000
     26 C27        111.8890   112.0790   152.5400 ca         1 XPW      -0.073000
     27 C28        112.4780   110.8510   152.2880 ca         1 XPW      -0.094200
     28 C29        109.8330   113.3590   152.7150 cg         1 XPW       0.323000
     29 N30        109.2820   114.3480   152.9290 n1         1 XPW      -0.455000
     30 C31        114.3800   112.0040   154.8690 c6         1 XPW      -0.080400
     31 O32        114.8070   111.2230   157.1350 os         1 XPW      -0.408100
     32 C33        113.6730   111.1380   157.8280 c          1 XPW       0.707100
     33 O34        113.3840   110.1780   158.4940 o          1 XPW      -0.514000
     34 H1         114.1830   114.0050   157.6330 h1         1 XPW       0.077700
     35 H2         113.1450   113.8190   156.2120 h1         1 XPW       0.077700
     36 H3         116.4950   113.2030   157.3280 hc         1 XPW       0.057200
     37 H4         116.0870   114.0100   155.8270 hc         1 XPW       0.057200
     38 H5         117.4340   111.2780   156.0720 hc         1 XPW       0.054200
     39 H6         118.1590   112.7590   155.5090 hc         1 XPW       0.054200
     40 H7         117.5130   111.3160   153.5930 hc         1 XPW       0.042700
     41 H8         116.6870   112.8640   153.5690 hc         1 XPW       0.042700
     42 H9         116.0100   109.6930   155.5180 hc         1 XPW       0.046700
     43 H10        114.5710   109.2580   154.6220 hc         1 XPW       0.046700
     44 H11        116.1580   109.1770   153.8480 hc         1 XPW       0.046700
     45 H12        115.7900   110.7690   151.9750 h1         1 XPW       0.061700
     46 H13        114.8330   112.2180   152.2180 h1         1 XPW       0.061700
     47 H14        106.9800   111.9580   158.8750 hc         1 XPW       0.047867
     48 H15        105.9010   113.3000   159.2500 hc         1 XPW       0.047867
     49 H16        106.9710   113.3920   157.8430 hc         1 XPW       0.047867
     50 H17        107.9370   112.1240   161.2660 hc         1 XPW       0.047867
     51 H18        108.6010   113.6600   161.8310 hc         1 XPW       0.047867
     52 H19        106.8580   113.4770   161.5910 hc         1 XPW       0.047867
     53 H20        107.0170   115.3560   160.0110 ho         1 XPW       0.452000
     54 H21        109.9930   115.3010   158.6290 h4         1 XPW       0.050100
     55 H22        111.0740   110.6030   158.7840 h4         1 XPW       0.059100
     56 H23        114.6680   108.5550   151.8290 h5         1 XPW       0.064800
     57 H24        109.7450   108.9130   151.6100 ha         1 XPW       0.137000
     58 H25        108.6520   111.0850   152.0800 ha         1 XPW       0.128000
     59 H26        112.4630   112.9620   152.7890 ha         1 XPW       0.125000
     60 H27        114.2020   112.9500   154.3480 hc         1 XPW       0.058700
     61 H28        113.4160   111.4860   154.9070 hc         1 XPW       0.058700
     62 C02        107.9720   113.6850   159.7500 c3         1 XPW       0.148700
@<TRIPOS>BOND
     1     1     2 1   
     2     1    19 1   
     3     1    34 1   
     4     1    35 1   
     5     2     3 1   
     6     2    30 1   
     7     2    31 1   
     8     3     4 1   
     9     3    36 1   
    10     3    37 1   
    11     4     5 1   
    12     4    38 1   
    13     4    39 1   
    14     5     6 1   
    15     5    40 1   
    16     5    41 1   
    17     6     7 1   
    18     6     8 1   
    19     6    30 1   
    20     7    42 1   
    21     7    43 1   
    22     7    44 1   
    23     8    20 1   
    24     8    45 1   
    25     8    46 1   
    26     9    22 1   
    27     9    23 ar  
    28     9    27 ar  
    29    10    47 1   
    30    10    48 1   
    31    10    49 1   
    32    10    62 1   
    33    11    50 1   
    34    11    51 1   
    35    11    52 1   
    36    11    62 1   
    37    12    53 1   
    38    12    62 1   
    39    13    14 ar  
    40    13    18 ar  
    41    13    62 1   
    42    14    15 ar  
    43    14    54 1   
    44    15    16 ar  
    45    16    17 ar  
    46    16    19 1   
    47    17    18 ar  
    48    17    55 1   
    49    19    32 1   
    50    20    21 1   
    51    20    27 1   
    52    21    22 2   
    53    21    56 1   
    54    23    24 ar  
    55    23    57 1   
    56    24    25 ar  
    57    24    58 1   
    58    25    26 ar  
    59    25    28 1   
    60    26    27 ar  
    61    26    59 1   
    62    28    29 3   
    63    30    60 1   
    64    30    61 1   
    65    31    32 1   
    66    32    33 2   
@<TRIPOS>SUBSTRUCTURE
     1 XPW         1 TEMP              0 ****  ****    0 ROOT
