@<TRIPOS>MOLECULE
XPX
  175   177     1     0     0
SMALL
abcg2


@<TRIPOS>ATOM
      1 C46          8.6240    -4.1030    30.5400 c3         1 XPX      -0.088100
      2 C45          7.2800    -3.6510    31.0930 c3         1 XPX      -0.076400
      3 C44          6.3090    -3.2080    30.0060 c3         1 XPX      -0.076400
      4 C43          4.9610    -2.7600    30.5580 c3         1 XPX      -0.073400
      5 C42          3.9800    -2.2610    29.5000 c3         1 XPX      -0.072400
      6 C41          3.5380    -3.3280    28.5040 c3         1 XPX      -0.077400
      7 C40          2.4830    -2.8200    27.5270 c3         1 XPX      -0.072400
      8 C39          2.0880    -3.8250    26.4480 c3         1 XPX      -0.072400
      9 C38          1.3860    -5.0710    26.9760 c3         1 XPX      -0.076400
     10 C37          0.9410    -6.0160    25.8660 c3         1 XPX      -0.076400
     11 C36          0.1940    -7.2380    26.3830 c3         1 XPX      -0.076400
     12 C35         -0.2710    -8.1680    25.2660 c3         1 XPX      -0.074400
     13 C34         -1.1340    -9.3460    25.7280 c3         1 XPX      -0.075400
     14 C33         -0.3960   -10.6480    26.0230 c3         1 XPX      -0.070400
     15 C32          0.6180   -10.5620    27.1620 c3         1 XPX      -0.132400
     16 C31          1.1840   -11.8830    27.6180 c          1 XPX       0.603100
     17 O20          2.3340   -12.0770    27.9200 o          1 XPX      -0.493000
     18 O19          0.2440   -12.8190    27.6870 os         1 XPX      -0.441100
     19 C30          0.5350   -14.0550    28.3280 c3         1 XPX       0.153600
     20 C13         -0.8050   -14.6880    28.6370 c3         1 XPX       0.154300
     21 O17         -1.4000   -15.1210    27.4080 os         1 XPX      -0.437100
     22 C14         -2.5010   -14.5350    26.9440 c          1 XPX       0.614100
     23 O18         -3.0380   -13.5930    27.4710 o          1 XPX      -0.499000
     24 C15         -3.0170   -15.2110    25.7000 c3         1 XPX      -0.138400
     25 C16         -3.5040   -14.2170    24.6510 c3         1 XPX      -0.066400
     26 C17         -2.3670   -13.4710    23.9660 c3         1 XPX      -0.081400
     27 C18         -2.8570   -12.3990    23.0010 c3         1 XPX      -0.075400
     28 C19         -1.7280   -11.7250    22.2320 c3         1 XPX      -0.074400
     29 C20         -2.1930   -10.5990    21.3110 c3         1 XPX      -0.071400
     30 C21         -2.6110    -9.3340    22.0520 c3         1 XPX      -0.080400
     31 C22         -3.1090    -8.2250    21.1340 c3         1 XPX      -0.075400
     32 C23         -3.4800    -6.9600    21.9010 c3         1 XPX      -0.075400
     33 C24         -4.0800    -5.8520    21.0410 c3         1 XPX      -0.073400
     34 C25         -3.1250    -5.3010    19.9860 c3         1 XPX      -0.073400
     35 C26         -3.6420    -4.0570    19.2680 c3         1 XPX      -0.073400
     36 C27         -4.9110    -4.2870    18.4540 c3         1 XPX      -0.077400
     37 C28         -5.3180    -3.0720    17.6290 c3         1 XPX      -0.076400
     38 C29         -6.5820    -3.3090    16.8150 c3         1 XPX      -0.088100
     39 C12         -0.6860   -15.8990    29.5370 c3         1 XPX       0.225600
     40 O16         -1.9980   -16.3300    29.8260 os         1 XPX      -0.590400
     41 P           -2.2500   -17.4920    30.9530 p5         1 XPX       1.410800
     42 O14         -1.1150   -18.4770    30.8680 o          1 XPX      -0.809500
     43 O15         -3.6800   -17.8960    30.8180 o          1 XPX      -0.809500
     44 O13         -2.0110   -16.6590    32.3540 os         1 XPX      -0.600400
     45 C47         -3.0720   -16.0780    33.0790 c6         1 XPX       0.239300
     46 C48         -2.9330   -14.5530    33.1100 c6         1 XPX       0.160800
     47 O2          -1.6880   -14.2900    33.7200 os         1 XPX      -0.494000
     48 C7          -1.2450   -12.9800    33.9840 c6         1 XPX       0.395800
     49 O7          -0.0220   -13.0990    34.6250 os         1 XPX      -0.444000
     50 C6           1.0370   -13.6540    33.8630 c6         1 XPX       0.098800
     51 C11          2.2620   -13.6890    34.7640 c3         1 XPX       0.166600
     52 O12          2.0890   -14.4900    35.9080 oh         1 XPX      -0.717500
     53 C10          1.2940   -12.8310    32.5940 c6         1 XPX       0.131300
     54 O11          2.2920   -13.4270    31.7980 oh         1 XPX      -0.709000
     55 C9          -0.0120   -12.6380    31.8190 c6         1 XPX       0.131300
     56 O10          0.1500   -11.8170    30.6900 oh         1 XPX      -0.673000
     57 C8          -1.1200   -12.1180    32.7240 c6         1 XPX       0.082300
     58 O9          -0.7790   -10.7990    33.0920 oh         1 XPX      -0.730000
     59 C49         -4.1370   -13.9810    33.8570 c6         1 XPX       0.130300
     60 O21         -4.1330   -12.5790    33.7680 oh         1 XPX      -0.736500
     61 C50         -4.1600   -14.4730    35.3010 c6         1 XPX       0.138300
     62 O22         -5.2880   -13.8930    35.9120 oh         1 XPX      -0.681000
     63 C51         -4.2300   -15.9940    35.3120 c6         1 XPX       0.130300
     64 O23         -4.2000   -16.4160    36.6550 oh         1 XPX      -0.736500
     65 C52         -3.0870   -16.6220    34.5120 c6         1 XPX       0.160800
     66 O1          -3.2830   -18.0190    34.5060 os         1 XPX      -0.494000
     67 C1          -2.3490   -18.8060    35.2030 c6         1 XPX       0.395800
     68 O           -3.0050   -19.8380    35.8580 os         1 XPX      -0.444000
     69 C           -3.6260   -20.8270    35.0450 c6         1 XPX       0.098800
     70 C5          -4.1580   -21.8760    36.0070 c3         1 XPX       0.166600
     71 O6          -5.1250   -21.3670    36.8920 oh         1 XPX      -0.717500
     72 C4          -2.6600   -21.4300    34.0090 c6         1 XPX       0.131300
     73 O5          -3.3390   -22.3360    33.1720 oh         1 XPX      -0.709000
     74 C3          -2.0000   -20.2950    33.2380 c6         1 XPX       0.131300
     75 O4          -1.0720   -20.7820    32.3060 oh         1 XPX      -0.673000
     76 C2          -1.3220   -19.3390    34.2190 c6         1 XPX       0.082300
     77 O3          -0.3090   -19.9870    34.9550 oh         1 XPX      -0.730000
     78 H461         9.2970    -4.4290    31.3340 hc         1 XPX       0.030367
     79 H462         9.1190    -3.2950    29.9980 hc         1 XPX       0.030367
     80 H463         8.5030    -4.9370    29.8460 hc         1 XPX       0.030367
     81 H451         7.4320    -2.8310    31.8020 hc         1 XPX       0.036200
     82 H452         6.8280    -4.4660    31.6680 hc         1 XPX       0.036200
     83 H441         6.1720    -4.0300    29.2970 hc         1 XPX       0.037700
     84 H442         6.7560    -2.3870    29.4320 hc         1 XPX       0.037700
     85 H431         5.1280    -1.9670    31.2930 hc         1 XPX       0.037200
     86 H432         4.5040    -3.5900    31.1100 hc         1 XPX       0.037200
     87 H421         4.4260    -1.4210    28.9560 hc         1 XPX       0.034200
     88 H422         3.0940    -1.8590    30.0020 hc         1 XPX       0.034200
     89 H411         3.1550    -4.1900    29.0600 hc         1 XPX       0.041200
     90 H412         4.3990    -3.6920    27.9350 hc         1 XPX       0.041200
     91 H401         2.8610    -1.9140    27.0420 hc         1 XPX       0.034200
     92 H402         1.5900    -2.5130    28.0830 hc         1 XPX       0.034200
     93 H391         2.9800    -4.1210    25.8850 hc         1 XPX       0.035700
     94 H392         1.4280    -3.3310    25.7280 hc         1 XPX       0.035700
     95 H381         0.5130    -4.7690    27.5660 hc         1 XPX       0.039700
     96 H382         2.0430    -5.6120    27.6630 hc         1 XPX       0.039700
     97 H371         1.8160    -6.3380    25.2910 hc         1 XPX       0.034700
     98 H372         0.3000    -5.4740    25.1620 hc         1 XPX       0.034700
     99 H361        -0.6800    -6.9070    26.9560 hc         1 XPX       0.039200
    100 H362         0.8300    -7.7740    27.0930 hc         1 XPX       0.039200
    101 H351         0.5960    -8.5380    24.7070 hc         1 XPX       0.034200
    102 H352        -0.8460    -7.5700    24.5510 hc         1 XPX       0.034200
    103 H341        -1.8730    -9.5700    24.9550 hc         1 XPX       0.041700
    104 H342        -1.7110    -9.0510    26.6110 hc         1 XPX       0.041700
    105 H331         0.1110   -10.9880    25.1140 hc         1 XPX       0.054200
    106 H332        -1.1460   -11.4040    26.2580 hc         1 XPX       0.054200
    107 H321         0.1400   -10.1130    28.0400 hc         1 XPX       0.067700
    108 H322         1.4550    -9.9170    26.8970 hc         1 XPX       0.067700
    109 H301         1.0900   -13.8870    29.2520 h1         1 XPX       0.059200
    110 H302         1.1380   -14.6960    27.6800 h1         1 XPX       0.059200
    111 H13         -1.4410   -13.9470    29.1280 h1         1 XPX       0.089700
    112 H151        -3.8470   -15.8510    26.0180 hc         1 XPX       0.074200
    113 H152        -2.2580   -15.8740    25.2810 hc         1 XPX       0.074200
    114 H161        -4.1970   -13.5100    25.1130 hc         1 XPX       0.046700
    115 H162        -4.0800   -14.7620    23.8990 hc         1 XPX       0.046700
    116 H171        -1.7370   -14.1910    23.4330 hc         1 XPX       0.042200
    117 H172        -1.7190   -13.0020    24.7150 hc         1 XPX       0.042200
    118 H181        -3.4290   -11.6560    23.5650 hc         1 XPX       0.036200
    119 H182        -3.5600   -12.8450    22.2880 hc         1 XPX       0.036200
    120 H191        -1.2050   -12.4840    21.6420 hc         1 XPX       0.038700
    121 H192        -0.9890   -11.3290    22.9370 hc         1 XPX       0.038700
    122 H201        -3.0250   -10.9570    20.6940 hc         1 XPX       0.033700
    123 H202        -1.3870   -10.3470    20.6140 hc         1 XPX       0.033700
    124 H211        -1.7550    -8.9630    22.6270 hc         1 XPX       0.040700
    125 H212        -3.3910    -9.5630    22.7850 hc         1 XPX       0.040700
    126 H221        -3.9830    -8.5790    20.5750 hc         1 XPX       0.035700
    127 H222        -2.3400    -8.0040    20.3880 hc         1 XPX       0.035700
    128 H231        -2.5920    -6.5790    22.4190 hc         1 XPX       0.038200
    129 H232        -4.1960    -7.2230    22.6870 hc         1 XPX       0.038200
    130 H241        -4.3970    -5.0300    21.6920 hc         1 XPX       0.037200
    131 H242        -4.9910    -6.2250    20.5630 hc         1 XPX       0.037200
    132 H251        -2.9060    -6.0730    19.2410 hc         1 XPX       0.038700
    133 H252        -2.1700    -5.0630    20.4660 hc         1 XPX       0.038700
    134 H261        -2.8580    -3.6830    18.6020 hc         1 XPX       0.035200
    135 H262        -3.8200    -3.2610    20.0000 hc         1 XPX       0.035200
    136 H271        -5.7390    -4.5600    19.1160 hc         1 XPX       0.038700
    137 H272        -4.7620    -5.1430    17.7860 hc         1 XPX       0.038700
    138 H281        -4.4960    -2.7990    16.9600 hc         1 XPX       0.035200
    139 H282        -5.4640    -2.2150    18.2940 hc         1 XPX       0.035200
    140 H291        -7.4270    -3.5540    17.4600 hc         1 XPX       0.030367
    141 H292        -6.4500    -4.1390    16.1180 hc         1 XPX       0.030367
    142 H293        -6.8560    -2.4290    16.2320 hc         1 XPX       0.030367
    143 H121        -0.1450   -15.6040    30.4430 h1         1 XPX       0.032200
    144 H122        -0.1030   -16.6860    29.0500 h1         1 XPX       0.032200
    145 H47         -4.0320   -16.3160    32.6080 h1         1 XPX       0.079700
    146 H48         -2.9540   -14.1840    32.0750 h1         1 XPX       0.072200
    147 H7          -1.9010   -12.4770    34.7020 h2         1 XPX       0.077200
    148 H6           0.7890   -14.6840    33.5590 h1         1 XPX       0.060200
    149 H111         2.4740   -12.6760    35.1170 h1         1 XPX       0.051450
    150 H112         3.1230   -14.0100    34.1690 h1         1 XPX       0.051450
    151 HO12         2.0280   -15.4080    35.6270 ho         1 XPX       0.505000
    152 H10          1.6910   -11.8500    32.8820 h1         1 XPX       0.087200
    153 HO11         1.9990   -14.3110    31.5460 ho         1 XPX       0.504500
    154 H9          -0.3240   -13.6190    31.4420 h1         1 XPX       0.074700
    155 HO10         0.2520   -10.9090    30.9990 ho         1 XPX       0.487500
    156 H8          -2.0610   -12.1250    32.1620 h1         1 XPX       0.075700
    157 HO9         -1.5810   -10.3260    33.3350 ho         1 XPX       0.515500
    158 H49         -5.0330   -14.3810    33.3530 h1         1 XPX       0.055700
    159 HO21        -4.8300   -12.2430    34.3440 ho         1 XPX       0.523000
    160 H50         -3.2410   -14.1560    35.8150 h1         1 XPX       0.063700
    161 HO22        -5.2500   -14.0690    36.8570 ho         1 XPX       0.462000
    162 H51         -5.1770   -16.2880    34.8340 h1         1 XPX       0.055700
    163 HO23        -4.5410   -17.3150    36.7020 ho         1 XPX       0.523000
    164 H52         -2.1340   -16.3730    34.9960 h1         1 XPX       0.072200
    165 H1          -1.8600   -18.2160    35.9890 h2         1 XPX       0.077200
    166 H           -4.4750   -20.3850    34.5020 h1         1 XPX       0.060200
    167 H51A        -3.3110   -22.3260    36.5430 h1         1 XPX       0.051450
    168 H52A        -4.6360   -22.6700    35.4330 h1         1 XPX       0.051450
    169 HO6         -4.7120   -20.6800    37.4230 ho         1 XPX       0.505000
    170 H4          -1.8970   -22.0210    34.5260 h1         1 XPX       0.087200
    171 HO5         -3.9780   -21.8480    32.6410 ho         1 XPX       0.504500
    172 H3          -2.8040   -19.7470    32.7250 h1         1 XPX       0.074700
    173 HO4         -0.9500   -20.0350    31.6810 ho         1 XPX       0.487500
    174 H2          -0.9090   -18.4900    33.6620 h1         1 XPX       0.075700
    175 HO3          0.2560   -20.4380    34.3180 ho         1 XPX       0.515500
@<TRIPOS>BOND
     1     1     2 1   
     2     1    78 1   
     3     1    79 1   
     4     1    80 1   
     5     2     3 1   
     6     2    81 1   
     7     2    82 1   
     8     3     4 1   
     9     3    83 1   
    10     3    84 1   
    11     4     5 1   
    12     4    85 1   
    13     4    86 1   
    14     5     6 1   
    15     5    87 1   
    16     5    88 1   
    17     6     7 1   
    18     6    89 1   
    19     6    90 1   
    20     7     8 1   
    21     7    91 1   
    22     7    92 1   
    23     8     9 1   
    24     8    93 1   
    25     8    94 1   
    26     9    10 1   
    27     9    95 1   
    28     9    96 1   
    29    10    11 1   
    30    10    97 1   
    31    10    98 1   
    32    11    12 1   
    33    11    99 1   
    34    11   100 1   
    35    12    13 1   
    36    12   101 1   
    37    12   102 1   
    38    13    14 1   
    39    13   103 1   
    40    13   104 1   
    41    14    15 1   
    42    14   105 1   
    43    14   106 1   
    44    15    16 1   
    45    15   107 1   
    46    15   108 1   
    47    16    17 2   
    48    16    18 1   
    49    18    19 1   
    50    19    20 1   
    51    19   109 1   
    52    19   110 1   
    53    20    21 1   
    54    20    39 1   
    55    20   111 1   
    56    21    22 1   
    57    22    23 2   
    58    22    24 1   
    59    24    25 1   
    60    24   112 1   
    61    24   113 1   
    62    25    26 1   
    63    25   114 1   
    64    25   115 1   
    65    26    27 1   
    66    26   116 1   
    67    26   117 1   
    68    27    28 1   
    69    27   118 1   
    70    27   119 1   
    71    28    29 1   
    72    28   120 1   
    73    28   121 1   
    74    29    30 1   
    75    29   122 1   
    76    29   123 1   
    77    30    31 1   
    78    30   124 1   
    79    30   125 1   
    80    31    32 1   
    81    31   126 1   
    82    31   127 1   
    83    32    33 1   
    84    32   128 1   
    85    32   129 1   
    86    33    34 1   
    87    33   130 1   
    88    33   131 1   
    89    34    35 1   
    90    34   132 1   
    91    34   133 1   
    92    35    36 1   
    93    35   134 1   
    94    35   135 1   
    95    36    37 1   
    96    36   136 1   
    97    36   137 1   
    98    37    38 1   
    99    37   138 1   
   100    37   139 1   
   101    38   140 1   
   102    38   141 1   
   103    38   142 1   
   104    39    40 1   
   105    39   143 1   
   106    39   144 1   
   107    40    41 1   
   108    41    42 1   
   109    41    43 1   
   110    41    44 1   
   111    44    45 1   
   112    45    46 1   
   113    45    65 1   
   114    45   145 1   
   115    46    47 1   
   116    46    59 1   
   117    46   146 1   
   118    47    48 1   
   119    48    49 1   
   120    48    57 1   
   121    48   147 1   
   122    49    50 1   
   123    50    51 1   
   124    50    53 1   
   125    50   148 1   
   126    51    52 1   
   127    51   149 1   
   128    51   150 1   
   129    52   151 1   
   130    53    54 1   
   131    53    55 1   
   132    53   152 1   
   133    54   153 1   
   134    55    56 1   
   135    55    57 1   
   136    55   154 1   
   137    56   155 1   
   138    57    58 1   
   139    57   156 1   
   140    58   157 1   
   141    59    60 1   
   142    59    61 1   
   143    59   158 1   
   144    60   159 1   
   145    61    62 1   
   146    61    63 1   
   147    61   160 1   
   148    62   161 1   
   149    63    64 1   
   150    63    65 1   
   151    63   162 1   
   152    64   163 1   
   153    65    66 1   
   154    65   164 1   
   155    66    67 1   
   156    67    68 1   
   157    67    76 1   
   158    67   165 1   
   159    68    69 1   
   160    69    70 1   
   161    69    72 1   
   162    69   166 1   
   163    70    71 1   
   164    70   167 1   
   165    70   168 1   
   166    71   169 1   
   167    72    73 1   
   168    72    74 1   
   169    72   170 1   
   170    73   171 1   
   171    74    75 1   
   172    74    76 1   
   173    74   172 1   
   174    75   173 1   
   175    76    77 1   
   176    76   174 1   
   177    77   175 1   
@<TRIPOS>SUBSTRUCTURE
     1 XPX         1 TEMP              0 ****  ****    0 ROOT
