@<TRIPOS>MOLECULE
XPX
  175   177     1     0     0
SMALL
No Charge or Current Charge


@<TRIPOS>ATOM
      1 C46          8.0150    -4.1950    29.0600 c3         1 XPX      -0.088100
      2 C45          6.8670    -3.2820    29.5330 c3         1 XPX      -0.076400
      3 C44          5.8910    -2.8990    28.3980 c3         1 XPX      -0.076400
      4 C43          4.7400    -1.9820    28.8760 c3         1 XPX      -0.073400
      5 C42          3.7960    -1.4960    27.7490 c3         1 XPX      -0.072400
      6 C41          2.9720    -2.6160    27.0730 c3         1 XPX      -0.077400
      7 C40          1.9820    -2.0770    26.0130 c3         1 XPX      -0.072400
      8 C39          1.1920    -3.1720    25.2560 c3         1 XPX      -0.072400
      9 C38          0.2010    -3.9710    26.1360 c3         1 XPX      -0.076400
     10 C37         -0.6150    -5.0070    25.3330 c3         1 XPX      -0.076400
     11 C36         -1.5990    -5.8140    26.2090 c3         1 XPX      -0.076400
     12 C35         -2.3860    -6.8700    25.3990 c3         1 XPX      -0.074400
     13 C34         -3.3540    -7.7510    26.2300 c3         1 XPX      -0.075400
     14 C33         -2.7730    -9.1010    26.7210 c3         1 XPX      -0.070400
     15 C32         -1.6780    -9.0150    27.8100 c3         1 XPX      -0.132400
     16 C31         -1.1940   -10.4110    28.2040 c          1 XPX       0.603100
     17 O20         -0.2470   -10.9710    27.6690 o          1 XPX      -0.493000
     18 O19         -2.0660   -11.0260    29.0630 os         1 XPX      -0.441100
     19 C30         -1.7680   -12.3730    29.4780 c3         1 XPX       0.153600
     20 C13         -2.9660   -12.9400    30.2820 c3         1 XPX       0.154300
     21 O17         -4.0380   -13.2450    29.3550 os         1 XPX      -0.437100
     22 C14         -4.9620   -12.2790    29.0510 c          1 XPX       0.614100
     23 O18         -5.0680   -11.2060    29.6300 o          1 XPX      -0.499000
     24 C15         -5.9710   -12.7750    28.0110 c3         1 XPX      -0.138400
     25 C16         -5.7420   -12.1300    26.6220 c3         1 XPX      -0.066400
     26 C17         -4.3820   -12.4870    25.9750 c3         1 XPX      -0.081400
     27 C18         -4.1690   -11.7950    24.6110 c3         1 XPX      -0.075400
     28 C19         -2.7830   -12.0960    23.9920 c3         1 XPX      -0.074400
     29 C20         -2.4910   -11.3360    22.6750 c3         1 XPX      -0.071400
     30 C21         -2.2810    -9.8130    22.8550 c3         1 XPX      -0.080400
     31 C22         -1.9210    -9.0860    21.5420 c3         1 XPX      -0.075400
     32 C23         -1.7150    -7.5640    21.7360 c3         1 XPX      -0.075400
     33 C24         -1.4090    -6.7870    20.4340 c3         1 XPX      -0.073400
     34 C25         -0.0520    -7.1500    19.7810 c3         1 XPX      -0.073400
     35 C26          0.3320    -6.2650    18.5710 c3         1 XPX      -0.073400
     36 C27         -0.6080    -6.4060    17.3510 c3         1 XPX      -0.077400
     37 C28         -0.1370    -5.5850    16.1310 c3         1 XPX      -0.076400
     38 C29         -1.0730    -5.7210    14.9140 c3         1 XPX      -0.088100
     39 C12         -2.5830   -14.2500    31.0110 c3         1 XPX       0.225600
     40 O16         -3.6620   -14.6340    31.8800 os         1 XPX      -0.590400
     41 P           -4.2030   -16.1450    31.8210 p5         1 XPX       1.410800
     42 O14         -4.2330   -16.6850    30.4300 o          1 XPX      -0.809500
     43 O15         -5.5080   -16.2960    32.5220 o          1 XPX      -0.809500
     44 O13         -3.0150   -16.8440    32.6410 os         1 XPX      -0.600400
     45 C47         -3.1020   -17.1520    34.0460 c6         1 XPX       0.239300
     46 C48         -3.2040   -15.8780    34.9590 c6         1 XPX       0.160800
     47 O2          -2.0150   -15.0470    34.7920 os         1 XPX      -0.494000
     48 C7          -2.0630   -13.7170    35.3580 c6         1 XPX       0.395800
     49 O7          -1.0790   -13.6250    36.4150 os         1 XPX      -0.444000
     50 C6           0.2970   -13.7990    35.9730 c6         1 XPX       0.098800
     51 C11          1.1980   -13.7220    37.2390 c3         1 XPX       0.166600
     52 O12          0.6050   -14.4450    38.3280 oh         1 XPX      -0.717500
     53 C10          0.6670   -12.7260    34.9070 c6         1 XPX       0.131300
     54 O11          2.0030   -12.9120    34.4010 oh         1 XPX      -0.709000
     55 C9          -0.3550   -12.7790    33.7310 c6         1 XPX       0.131300
     56 O10         -0.0890   -11.7270    32.7920 oh         1 XPX      -0.673000
     57 C8          -1.8070   -12.6210    34.2630 c6         1 XPX       0.082300
     58 O9          -1.9720   -11.2590    34.7510 oh         1 XPX      -0.730000
     59 C49         -3.4050   -16.3600    36.4420 c6         1 XPX       0.130300
     60 O21         -3.6190   -15.2940    37.3850 oh         1 XPX      -0.736500
     61 C50         -2.1780   -17.2040    36.8930 c6         1 XPX       0.138300
     62 O22         -2.3330   -17.6130    38.2640 oh         1 XPX      -0.681000
     63 C51         -2.0400   -18.4580    35.9840 c6         1 XPX       0.130300
     64 O23         -0.9380   -19.2850    36.4120 oh         1 XPX      -0.736500
     65 C52         -1.9010   -18.0650    34.4810 c6         1 XPX       0.160800
     66 O1          -1.8190   -19.2950    33.7000 os         1 XPX      -0.494000
     67 C1          -0.7190   -19.4300    32.7610 c6         1 XPX       0.395800
     68 O           -0.5600   -20.8420    32.4800 os         1 XPX      -0.444000
     69 C           -1.7070   -21.4610    31.8240 c6         1 XPX       0.098800
     70 C5          -1.3690   -22.9680    31.6260 c3         1 XPX       0.166600
     71 O6          -0.7590   -23.5180    32.8040 oh         1 XPX      -0.717500
     72 C4          -2.0450   -20.7430    30.4780 c6         1 XPX       0.131300
     73 O5          -3.2390   -21.2800    29.8780 oh         1 XPX      -0.709000
     74 C3          -2.2210   -19.2150    30.7400 c6         1 XPX       0.131300
     75 O4          -2.5270   -18.5010    29.5240 oh         1 XPX      -0.673000
     76 C2          -0.9370   -18.6450    31.4170 c6         1 XPX       0.082300
     77 O3           0.1840   -18.7520    30.5030 oh         1 XPX      -0.730000
     78 H461         8.6800    -4.4380    29.8970 hc         1 XPX       0.030367
     79 H462         8.6100    -3.6990    28.2830 hc         1 XPX       0.030367
     80 H463         7.6220    -5.1330    28.6510 hc         1 XPX       0.030367
     81 H451         7.2940    -2.3710    29.9690 hc         1 XPX       0.036200
     82 H452         6.3130    -3.7910    30.3320 hc         1 XPX       0.036200
     83 H441         5.4750    -3.8170    27.9670 hc         1 XPX       0.037700
     84 H442         6.4490    -2.3920    27.6010 hc         1 XPX       0.037700
     85 H431         5.1730    -1.1000    29.3640 hc         1 XPX       0.037200
     86 H432         4.1510    -2.5040    29.6400 hc         1 XPX       0.037200
     87 H421         4.3850    -0.9670    26.9890 hc         1 XPX       0.034200
     88 H422         3.1040    -0.7590    28.1760 hc         1 XPX       0.034200
     89 H411         2.4210    -3.1640    27.8460 hc         1 XPX       0.041200
     90 H412         3.6490    -3.3310    26.5900 hc         1 XPX       0.041200
     91 H401         2.5430    -1.4880    25.2770 hc         1 XPX       0.034200
     92 H402         1.2750    -1.3880    26.4910 hc         1 XPX       0.034200
     93 H391         1.8990    -3.8650    24.7820 hc         1 XPX       0.035700
     94 H392         0.6320    -2.6930    24.4430 hc         1 XPX       0.035700
     95 H381        -0.4870    -3.2730    26.6290 hc         1 XPX       0.039700
     96 H382         0.7520    -4.4940    26.9260 hc         1 XPX       0.039700
     97 H371         0.0760    -5.7000    24.8370 hc         1 XPX       0.034700
     98 H372        -1.1750    -4.4930    24.5420 hc         1 XPX       0.034700
     99 H361        -2.3080    -5.1240    26.6830 hc         1 XPX       0.039200
    100 H362        -1.0400    -6.2930    27.0190 hc         1 XPX       0.039200
    101 H351        -1.6840    -7.5120    24.8540 hc         1 XPX       0.034200
    102 H352        -2.9730    -6.3400    24.6380 hc         1 XPX       0.034200
    103 H341        -4.2180    -7.9830    25.5950 hc         1 XPX       0.041700
    104 H342        -3.7490    -7.1810    27.0800 hc         1 XPX       0.041700
    105 H331        -2.3740    -9.6520    25.8620 hc         1 XPX       0.054200
    106 H332        -3.6030    -9.7010    27.1150 hc         1 XPX       0.054200
    107 H321        -2.1290    -8.5310    28.6840 hc         1 XPX       0.067700
    108 H322        -0.8220    -8.4480    27.4330 hc         1 XPX       0.067700
    109 H301        -0.8660   -12.3830    30.1040 h1         1 XPX       0.059200
    110 H302        -1.5860   -13.0220    28.6110 h1         1 XPX       0.059200
    111 H13         -3.2720   -12.2120    31.0450 h1         1 XPX       0.089700
    112 H151        -6.9800   -12.5180    28.3510 hc         1 XPX       0.074200
    113 H152        -5.8760   -13.8620    27.8970 hc         1 XPX       0.074200
    114 H161        -5.8240   -11.0400    26.7170 hc         1 XPX       0.046700
    115 H162        -6.5480   -12.4470    25.9490 hc         1 XPX       0.046700
    116 H171        -4.3170   -13.5750    25.8450 hc         1 XPX       0.042200
    117 H172        -3.5680   -12.1990    26.6510 hc         1 XPX       0.042200
    118 H181        -4.2910   -10.7150    24.7440 hc         1 XPX       0.036200
    119 H182        -4.9520   -12.1180    23.9140 hc         1 XPX       0.036200
    120 H191        -2.7160   -13.1730    23.7940 hc         1 XPX       0.038700
    121 H192        -1.9960   -11.8650    24.7200 hc         1 XPX       0.038700
    122 H201        -3.3090   -11.5120    21.9650 hc         1 XPX       0.033700
    123 H202        -1.5870   -11.7620    22.2240 hc         1 XPX       0.033700
    124 H211        -1.4750    -9.6490    23.5810 hc         1 XPX       0.040700
    125 H212        -3.1880    -9.3600    23.2710 hc         1 XPX       0.040700
    126 H221        -2.7200    -9.2510    20.8080 hc         1 XPX       0.035700
    127 H222        -1.0080    -9.5320    21.1310 hc         1 XPX       0.035700
    128 H231        -0.9040    -7.3940    22.4550 hc         1 XPX       0.038200
    129 H232        -2.6230    -7.1410    22.1830 hc         1 XPX       0.038200
    130 H241        -1.4140    -5.7140    20.6640 hc         1 XPX       0.037200
    131 H242        -2.2240    -6.9590    19.7210 hc         1 XPX       0.037200
    132 H251        -0.0640    -8.1990    19.4600 hc         1 XPX       0.038700
    133 H252         0.7370    -7.0620    20.5370 hc         1 XPX       0.038700
    134 H261         1.3510    -6.5300    18.2630 hc         1 XPX       0.035200
    135 H262         0.3640    -5.2150    18.8870 hc         1 XPX       0.035200
    136 H271        -1.6180    -6.0800    17.6260 hc         1 XPX       0.038700
    137 H272        -0.6770    -7.4640    17.0680 hc         1 XPX       0.038700
    138 H281         0.8710    -5.9090    15.8420 hc         1 XPX       0.035200
    139 H282        -0.0660    -4.5270    16.4090 hc         1 XPX       0.035200
    140 H291        -2.0820    -5.3680    15.1590 hc         1 XPX       0.030367
    141 H292        -1.1400    -6.7670    14.5900 hc         1 XPX       0.030367
    142 H293        -0.6960    -5.1260    14.0740 hc         1 XPX       0.030367
    143 H121        -1.6740   -14.0860    31.5990 h1         1 XPX       0.032200
    144 H122        -2.3500   -15.0220    30.2660 h1         1 XPX       0.032200
    145 H47         -4.0200   -17.7390    34.1930 h1         1 XPX       0.079700
    146 H48         -4.0870   -15.2970    34.6560 h1         1 XPX       0.072200
    147 H7          -3.0600   -13.5320    35.7820 h2         1 XPX       0.077200
    148 H6           0.4060   -14.8030    35.5360 h1         1 XPX       0.060200
    149 H111         1.3220   -12.6650    37.5130 h1         1 XPX       0.051450
    150 H112         2.1920   -14.1220    36.9980 h1         1 XPX       0.051450
    151 HO12        -0.3650   -14.3660    38.1560 ho         1 XPX       0.505000
    152 H10          0.5850   -11.7370    35.3850 h1         1 XPX       0.087200
    153 HO11         2.0210   -12.4240    33.5440 ho         1 XPX       0.504500
    154 H9          -0.2620   -13.7620    33.2430 h1         1 XPX       0.074700
    155 HO10        -0.6140   -10.9690    33.1450 ho         1 XPX       0.487500
    156 H8          -2.5100   -12.8080    33.4380 h1         1 XPX       0.075700
    157 HO9         -2.8700   -11.1850    35.1540 ho         1 XPX       0.515500
    158 H49         -4.2870   -17.0190    36.4580 h1         1 XPX       0.055700
    159 HO21        -3.3520   -15.6900    38.2510 ho         1 XPX       0.523000
    160 H50         -1.2660   -16.5960    36.7850 h1         1 XPX       0.063700
    161 HO22        -1.7360   -18.3930    38.3560 ho         1 XPX       0.462000
    162 H51         -2.9730   -19.0350    36.0790 h1         1 XPX       0.055700
    163 HO23        -0.8630   -19.9980    35.7330 ho         1 XPX       0.523000
    164 H52         -0.9700   -17.4920    34.3590 h1         1 XPX       0.072200
    165 H1           0.2060   -19.0670    33.2340 h2         1 XPX       0.077200
    166 H           -2.5760   -21.3950    32.4960 h1         1 XPX       0.060200
    167 H51A        -0.6850   -23.0600    30.7700 h1         1 XPX       0.051450
    168 H52A        -2.2900   -23.5110    31.3730 h1         1 XPX       0.051450
    169 HO6         -0.2630   -22.7570    33.1920 ho         1 XPX       0.505000
    170 H4          -1.1920   -20.8820    29.7960 h1         1 XPX       0.087200
    171 HO5         -3.5170   -20.6040    29.2150 ho         1 XPX       0.504500
    172 H3          -3.0580   -19.1040    31.4450 h1         1 XPX       0.074700
    173 HO4         -3.1800   -17.7820    29.7910 ho         1 XPX       0.487500
    174 H2          -1.0790   -17.5860    31.6570 h1         1 XPX       0.075700
    175 HO3         -0.1840   -18.5140    29.6180 ho         1 XPX       0.515500
@<TRIPOS>BOND
     1     1     2 1   
     2     1    78 1   
     3     1    79 1   
     4     1    80 1   
     5     2     3 1   
     6     2    81 1   
     7     2    82 1   
     8     3     4 1   
     9     3    83 1   
    10     3    84 1   
    11     4     5 1   
    12     4    85 1   
    13     4    86 1   
    14     5     6 1   
    15     5    87 1   
    16     5    88 1   
    17     6     7 1   
    18     6    89 1   
    19     6    90 1   
    20     7     8 1   
    21     7    91 1   
    22     7    92 1   
    23     8     9 1   
    24     8    93 1   
    25     8    94 1   
    26     9    10 1   
    27     9    95 1   
    28     9    96 1   
    29    10    11 1   
    30    10    97 1   
    31    10    98 1   
    32    11    12 1   
    33    11    99 1   
    34    11   100 1   
    35    12    13 1   
    36    12   101 1   
    37    12   102 1   
    38    13    14 1   
    39    13   103 1   
    40    13   104 1   
    41    14    15 1   
    42    14   105 1   
    43    14   106 1   
    44    15    16 1   
    45    15   107 1   
    46    15   108 1   
    47    16    17 2   
    48    16    18 1   
    49    18    19 1   
    50    19    20 1   
    51    19   109 1   
    52    19   110 1   
    53    20    21 1   
    54    20    39 1   
    55    20   111 1   
    56    21    22 1   
    57    22    23 2   
    58    22    24 1   
    59    24    25 1   
    60    24   112 1   
    61    24   113 1   
    62    25    26 1   
    63    25   114 1   
    64    25   115 1   
    65    26    27 1   
    66    26   116 1   
    67    26   117 1   
    68    27    28 1   
    69    27   118 1   
    70    27   119 1   
    71    28    29 1   
    72    28   120 1   
    73    28   121 1   
    74    29    30 1   
    75    29   122 1   
    76    29   123 1   
    77    30    31 1   
    78    30   124 1   
    79    30   125 1   
    80    31    32 1   
    81    31   126 1   
    82    31   127 1   
    83    32    33 1   
    84    32   128 1   
    85    32   129 1   
    86    33    34 1   
    87    33   130 1   
    88    33   131 1   
    89    34    35 1   
    90    34   132 1   
    91    34   133 1   
    92    35    36 1   
    93    35   134 1   
    94    35   135 1   
    95    36    37 1   
    96    36   136 1   
    97    36   137 1   
    98    37    38 1   
    99    37   138 1   
   100    37   139 1   
   101    38   140 1   
   102    38   141 1   
   103    38   142 1   
   104    39    40 1   
   105    39   143 1   
   106    39   144 1   
   107    40    41 1   
   108    41    42 1   
   109    41    43 1   
   110    41    44 1   
   111    44    45 1   
   112    45    46 1   
   113    45    65 1   
   114    45   145 1   
   115    46    47 1   
   116    46    59 1   
   117    46   146 1   
   118    47    48 1   
   119    48    49 1   
   120    48    57 1   
   121    48   147 1   
   122    49    50 1   
   123    50    51 1   
   124    50    53 1   
   125    50   148 1   
   126    51    52 1   
   127    51   149 1   
   128    51   150 1   
   129    52   151 1   
   130    53    54 1   
   131    53    55 1   
   132    53   152 1   
   133    54   153 1   
   134    55    56 1   
   135    55    57 1   
   136    55   154 1   
   137    56   155 1   
   138    57    58 1   
   139    57   156 1   
   140    58   157 1   
   141    59    60 1   
   142    59    61 1   
   143    59   158 1   
   144    60   159 1   
   145    61    62 1   
   146    61    63 1   
   147    61   160 1   
   148    62   161 1   
   149    63    64 1   
   150    63    65 1   
   151    63   162 1   
   152    64   163 1   
   153    65    66 1   
   154    65   164 1   
   155    66    67 1   
   156    67    68 1   
   157    67    76 1   
   158    67   165 1   
   159    68    69 1   
   160    69    70 1   
   161    69    72 1   
   162    69   166 1   
   163    70    71 1   
   164    70   167 1   
   165    70   168 1   
   166    71   169 1   
   167    72    73 1   
   168    72    74 1   
   169    72   170 1   
   170    73   171 1   
   171    74    75 1   
   172    74    76 1   
   173    74   172 1   
   174    75   173 1   
   175    76    77 1   
   176    76   174 1   
   177    77   175 1   
@<TRIPOS>SUBSTRUCTURE
     1 XPX         1 TEMP              0 ****  ****    0 ROOT
