@<TRIPOS>MOLECULE
XPY
   51    54     1     0     0
SMALL
No Charge or Current Charge


@<TRIPOS>ATOM
      1 C1          33.2580     8.2660   -11.5400 cc         1 XPY       0.015000
      2 C2          32.4760     9.4020   -11.3570 cd         1 XPY      -0.284000
      3 C3          31.4910     9.4990   -10.3130 cd         1 XPY       0.674900
      4 N6          27.4480     7.0880    -5.1380 nc         1 XPY      -0.468800
      5 C7          29.9730    13.7510    -7.3000 c6         1 XPY      -0.071400
      6 C8          31.2500    12.8930    -7.1060 c6         1 XPY      -0.070400
      7 C9          31.6590    12.1420    -8.4030 c6         1 XPY       0.145500
      8 C10         32.9560     5.4580    -9.6220 cd         1 XPY       0.465500
      9 C11         31.9540     6.2640    -9.0210 cd         1 XPY      -0.408800
     10 C12         31.0970     5.8240    -7.9250 c          1 XPY       0.667300
     11 C13         29.1770     6.5630    -6.5150 cd         1 XPY       0.015600
     12 C14         28.2530     7.5510    -6.0840 cd         1 XPY       0.094300
     13 C15         28.1610     8.9870    -6.5720 c3         1 XPY       0.283700
     14 F2          28.1660     9.0580    -7.9220 f          1 XPY      -0.112000
     15 F           27.0360     9.6170    -6.1570 f          1 XPY      -0.112000
     16 F1          29.2060     9.7190    -6.1240 f          1 XPY      -0.112000
     17 N7          27.8670     5.7840    -4.9750 na         1 XPY       0.145800
     18 C17         28.9250     5.4270    -5.8010 cc         1 XPY      -0.191000
     19 N5          30.1540     6.7330    -7.4960 ns         1 XPY      -0.381100
     20 O           31.2230     4.7070    -7.4440 o          1 XPY      -0.623100
     21 C           31.9740     7.4520    -9.6790 cc         1 XPY       0.483500
     22 N4          33.6000     6.0480   -10.6250 nc         1 XPY      -0.582100
     23 N1          32.9660     7.2620   -10.6240 na         1 XPY       0.064900
     24 N           31.1930     8.5470    -9.4480 nc         1 XPY      -0.785000
     25 N2          30.7900    10.6490   -10.2300 nu         1 XPY      -0.914100
     26 C4          30.4530    11.2800    -8.9390 c6         1 XPY       0.244500
     27 C6          28.7950    12.8930    -7.8230 c6         1 XPY      -0.069400
     28 C5          29.1770    12.1470    -9.1270 c6         1 XPY      -0.079400
     29 H1          34.0250     8.0990   -12.2860 h4         1 XPY       0.166000
     30 H2          32.6250    10.2440   -12.0220 ha         1 XPY       0.141000
     31 H3          30.1750    14.5710    -8.0030 hc         1 XPY       0.046700
     32 H4          29.6930    14.2230    -6.3480 hc         1 XPY       0.046700
     33 H5          31.0740    12.1590    -6.3070 hc         1 XPY       0.047700
     34 H6          32.0770    13.5260    -6.7560 hc         1 XPY       0.047700
     35 H7          32.4850    11.4620    -8.1410 h1         1 XPY       0.035700
     36 H8          33.2270     4.4420    -9.3590 h4         1 XPY       0.065800
     37 H9          27.3010     5.3590    -2.9910 h1         1 XPY       0.063367
     38 H10         26.1380     4.8290    -4.2450 h1         1 XPY       0.063367
     39 H11         27.6610     3.9250    -3.9990 h1         1 XPY       0.063367
     40 H12         29.3730     4.4420    -5.8000 h4         1 XPY       0.190000
     41 H13         30.2110     7.6140    -8.0010 hn         1 XPY       0.357500
     42 H14         31.0590    11.3000   -10.9600 hn         1 XPY       0.498000
     43 H15         30.2330    10.5190    -8.1790 h1         1 XPY       0.088700
     44 H19         27.9200    13.5330    -8.0050 hc         1 XPY       0.045700
     45 H20         28.4930    12.1690    -7.0540 hc         1 XPY       0.045700
     46 H21         29.3340    12.8780    -9.9310 hc         1 XPY       0.049200
     47 H22         28.3400    11.5110    -9.4440 hc         1 XPY       0.049200
     48 N3          32.2110    13.0980    -9.4110 n8         1 XPY      -1.010200
     49 C16         27.2000     4.9200    -3.9910 c3         1 XPY       0.071900
     50 H16         32.7950    13.7860    -8.9230 hn         1 XPY       0.394000
     51 H17         32.8820    12.5980   -10.0020 hn         1 XPY       0.394000
@<TRIPOS>BOND
     1     1     2 2   
     2     1    23 1   
     3     1    29 1   
     4     2     3 1   
     5     2    30 1   
     6     3    24 2   
     7     3    25 1   
     8     4    12 2   
     9     4    17 1   
    10     5     6 1   
    11     5    27 1   
    12     5    31 1   
    13     5    32 1   
    14     6     7 1   
    15     6    33 1   
    16     6    34 1   
    17     7    26 1   
    18     7    35 1   
    19     7    48 1   
    20     8     9 1   
    21     8    22 2   
    22     8    36 1   
    23     9    10 1   
    24     9    21 2   
    25    10    19 1   
    26    10    20 2   
    27    11    12 1   
    28    11    18 2   
    29    11    19 1   
    30    12    13 1   
    31    13    14 1   
    32    13    15 1   
    33    13    16 1   
    34    17    18 1   
    35    17    49 1   
    36    18    40 1   
    37    19    41 1   
    38    21    23 1   
    39    21    24 1   
    40    22    23 1   
    41    25    26 1   
    42    25    42 1   
    43    26    28 1   
    44    26    43 1   
    45    27    28 1   
    46    27    44 1   
    47    27    45 1   
    48    28    46 1   
    49    28    47 1   
    50    37    49 1   
    51    38    49 1   
    52    39    49 1   
    53    48    50 1   
    54    48    51 1   
@<TRIPOS>SUBSTRUCTURE
     1 XPY         1 TEMP              0 ****  ****    0 ROOT
