@<TRIPOS>MOLECULE
XPY
   51    54     1     0     0
SMALL
abcg2


@<TRIPOS>ATOM
      1 C1          33.1520     8.1790   -11.7150 cc         1 XPY       0.015000
      2 C2          32.6160     9.4040   -11.5340 cd         1 XPY      -0.284000
      3 C3          31.7330     9.6300   -10.4180 cd         1 XPY       0.674900
      4 N6          27.8390     7.1180    -4.7560 nc         1 XPY      -0.468800
      5 C7          29.5900    13.6870    -7.5060 c6         1 XPY      -0.071400
      6 C8          30.6140    12.6850    -6.9730 c6         1 XPY      -0.070400
      7 C9          31.4120    11.9900    -8.0810 c6         1 XPY       0.145500
      8 C10         32.6490     5.3250    -9.8580 cd         1 XPY       0.465500
      9 C11         31.8190     6.2080    -9.1290 cd         1 XPY      -0.408800
     10 C12         30.9950     5.8270    -7.9920 c          1 XPY       0.667300
     11 C13         29.3460     6.6420    -6.3890 cd         1 XPY       0.015600
     12 C14         28.6070     7.6410    -5.7140 cd         1 XPY       0.094300
     13 C15         28.5790     9.1020    -5.9700 c3         1 XPY       0.283700
     14 F2          27.6880     9.4540    -6.9350 f          1 XPY      -0.112000
     15 F           28.2580     9.8180    -4.8790 f          1 XPY      -0.112000
     16 F1          29.7880     9.5370    -6.4010 f          1 XPY      -0.112000
     17 N7          28.0730     5.8100    -4.7980 na         1 XPY       0.145800
     18 C17         28.9690     5.4650    -5.7560 cc         1 XPY      -0.191000
     19 N5          30.2310     6.8240    -7.4460 ns         1 XPY      -0.381100
     20 O           30.9740     4.6740    -7.5530 o          1 XPY      -0.623100
     21 C           31.9490     7.4440    -9.7870 cc         1 XPY       0.483500
     22 N4          33.2550     5.9030   -10.8810 nc         1 XPY      -0.582100
     23 N1          32.8180     7.1990   -10.8350 na         1 XPY       0.064900
     24 N           31.4160     8.6550    -9.5630 nc         1 XPY      -0.785000
     25 N2          31.2280    10.8650   -10.2710 nu         1 XPY      -0.914100
     26 C4          30.4660    11.3780    -9.1390 c6         1 XPY       0.244500
     27 C6          28.6470    13.0150    -8.5030 c6         1 XPY      -0.069400
     28 C5          29.4260    12.3750    -9.6520 c6         1 XPY      -0.079400
     29 H1          33.8330     7.9100   -12.5090 h4         1 XPY       0.166000
     30 H2          32.8570    10.2130   -12.2090 ha         1 XPY       0.141000
     31 H3          30.1010    14.5210    -7.9940 hc         1 XPY       0.046700
     32 H4          29.0210    14.1070    -6.6730 hc         1 XPY       0.046700
     33 H5          30.0960    11.9230    -6.3900 hc         1 XPY       0.047700
     34 H6          31.3160    13.1760    -6.2930 hc         1 XPY       0.047700
     35 H7          31.9680    11.1570    -7.6300 h1         1 XPY       0.035700
     36 H8          32.8120     4.2780    -9.6570 h4         1 XPY       0.065800
     37 H9          26.7950     5.5050    -3.2070 h1         1 XPY       0.063367
     38 H10         26.7780     4.2080    -4.4260 h1         1 XPY       0.063367
     39 H11         28.1480     4.3520    -3.2990 h1         1 XPY       0.063367
     40 H12         29.2730     4.4490    -5.9150 h4         1 XPY       0.190000
     41 H13         30.3170     7.7480    -7.8560 hn         1 XPY       0.357500
     42 H14         31.5290    11.5500   -10.9470 hn         1 XPY       0.498000
     43 H15         29.9560    10.5320    -8.6830 h1         1 XPY       0.088700
     44 H19         27.9310    13.7370    -8.9020 hc         1 XPY       0.045700
     45 H20         28.0650    12.2430    -7.9870 hc         1 XPY       0.045700
     46 H21         29.9350    13.1560   -10.2250 hc         1 XPY       0.049200
     47 H22         28.7520    11.8570   -10.3380 hc         1 XPY       0.049200
     48 N3          32.3230    12.9510    -8.7210 n8         1 XPY      -1.010200
     49 C16         27.4070     4.9060    -3.8750 c3         1 XPY       0.071900
     50 H16         32.8600    13.4290    -8.0040 hn         1 XPY       0.394000
     51 H17         32.9990    12.4580    -9.2950 hn         1 XPY       0.394000
@<TRIPOS>BOND
     1     1     2 2   
     2     1    23 1   
     3     1    29 1   
     4     2     3 1   
     5     2    30 1   
     6     3    24 2   
     7     3    25 1   
     8     4    12 2   
     9     4    17 1   
    10     5     6 1   
    11     5    27 1   
    12     5    31 1   
    13     5    32 1   
    14     6     7 1   
    15     6    33 1   
    16     6    34 1   
    17     7    26 1   
    18     7    35 1   
    19     7    48 1   
    20     8     9 1   
    21     8    22 2   
    22     8    36 1   
    23     9    10 1   
    24     9    21 2   
    25    10    19 1   
    26    10    20 2   
    27    11    12 1   
    28    11    18 2   
    29    11    19 1   
    30    12    13 1   
    31    13    14 1   
    32    13    15 1   
    33    13    16 1   
    34    17    18 1   
    35    17    49 1   
    36    18    40 1   
    37    19    41 1   
    38    21    23 1   
    39    21    24 1   
    40    22    23 1   
    41    25    26 1   
    42    25    42 1   
    43    26    28 1   
    44    26    43 1   
    45    27    28 1   
    46    27    44 1   
    47    27    45 1   
    48    28    46 1   
    49    28    47 1   
    50    37    49 1   
    51    38    49 1   
    52    39    49 1   
    53    48    50 1   
    54    48    51 1   
@<TRIPOS>SUBSTRUCTURE
     1 XPY         1 TEMP              0 ****  ****    0 ROOT
