@<TRIPOS>MOLECULE
XPZ
   69    69     1     0     0
SMALL
No Charge or Current Charge


@<TRIPOS>ATOM
      1 O3          -5.5020   -30.0510     2.6050 o          1 XPZ      -0.724000
      2 C18         -4.9800   -29.2540     1.8360 c          1 XPZ       0.708000
      3 O2          -5.5720   -28.7550     0.8890 o          1 XPZ      -0.724000
      4 C17         -3.5380   -28.7390     2.1480 c3         1 XPZ      -0.033300
      5 C19         -2.4830   -29.3710     1.2010 c3         1 XPZ      -0.031100
      6 C20         -2.1470   -30.8230     1.5350 ca         1 XPZ      -0.042300
      7 C25         -1.0430   -31.1280     2.3560 ca         1 XPZ      -0.098000
      8 C24         -0.7340   -32.4650     2.6630 ca         1 XPZ      -0.122500
      9 C23         -1.5240   -33.5050     2.1470 ca         1 XPZ      -0.134000
     10 C22         -2.6230   -33.2080     1.3240 ca         1 XPZ      -0.122500
     11 C21         -2.9330   -31.8720     1.0180 ca         1 XPZ      -0.098000
     12 N1          -3.2010   -28.9280     3.5820 ns         1 XPZ      -0.462900
     13 C16         -2.1810   -28.2990     4.2590 c          1 XPZ       0.581100
     14 O1          -1.4500   -27.4750     3.7260 o          1 XPZ      -0.670100
     15 C15         -2.0070   -28.7510     5.7160 c3         1 XPZ      -0.158400
     16 C14         -2.6270   -27.7620     6.7370 c3         1 XPZ      -0.069400
     17 C13         -1.9200   -26.3890     6.8150 c3         1 XPZ      -0.076400
     18 C12         -2.5190   -25.4660     7.8990 c3         1 XPZ      -0.073400
     19 C11         -1.8170   -24.0920     7.9790 c3         1 XPZ      -0.074400
     20 C10         -2.4150   -23.1700     9.0630 c3         1 XPZ      -0.075400
     21 C9          -1.7080   -21.7960     9.1430 c3         1 XPZ      -0.074400
     22 C8          -2.3350   -20.8120    10.1600 c3         1 XPZ      -0.073400
     23 C7          -2.2220   -21.2630    11.6380 c3         1 XPZ      -0.074400
     24 C6          -2.6970   -20.2080    12.6650 c3         1 XPZ      -0.071400
     25 C5          -4.2080   -19.8830    12.5960 c3         1 XPZ      -0.077400
     26 C4          -4.6610   -18.8920    13.6900 c3         1 XPZ      -0.074400
     27 C3          -6.1690   -18.5640    13.6210 c3         1 XPZ      -0.077400
     28 C2          -6.6230   -17.5730    14.7150 c3         1 XPZ      -0.075400
     29 C1          -8.1270   -17.2450    14.6460 c3         1 XPZ      -0.088100
     30 H2          -3.5570   -27.6590     1.9540 h1         1 XPZ       0.057700
     31 H3          -1.5690   -28.7670     1.2430 hc         1 XPZ       0.049200
     32 H4          -2.8360   -29.2920     0.1660 hc         1 XPZ       0.049200
     33 H5          -0.4250   -30.3290     2.7590 ha         1 XPZ       0.119500
     34 H6           0.1180   -32.6930     3.2990 ha         1 XPZ       0.093500
     35 H7          -1.2850   -34.5390     2.3840 ha         1 XPZ       0.089000
     36 H8          -3.2350   -34.0130     0.9230 ha         1 XPZ       0.093500
     37 H9          -3.7870   -31.6510     0.3810 ha         1 XPZ       0.119500
     38 H10         -3.7550   -29.5950     4.1070 hn         1 XPZ       0.343500
     39 H11         -2.5080   -29.7150     5.8600 hc         1 XPZ       0.052200
     40 H12         -0.9370   -28.8550     5.9350 hc         1 XPZ       0.052200
     41 H13         -3.6870   -27.6120     6.4940 hc         1 XPZ       0.039200
     42 H14         -2.5970   -28.2280     7.7290 hc         1 XPZ       0.039200
     43 H15         -0.8540   -26.5430     7.0220 hc         1 XPZ       0.045700
     44 H16         -1.9900   -25.8840     5.8450 hc         1 XPZ       0.045700
     45 H17         -3.5860   -25.3130     7.6930 hc         1 XPZ       0.037200
     46 H18         -2.4490   -25.9630     8.8750 hc         1 XPZ       0.037200
     47 H19         -0.7500   -24.2450     8.1850 hc         1 XPZ       0.038700
     48 H20         -1.8870   -23.5950     7.0030 hc         1 XPZ       0.038700
     49 H21         -3.4820   -23.0150     8.8560 hc         1 XPZ       0.036200
     50 H22         -2.3460   -23.6760    10.0330 hc         1 XPZ       0.036200
     51 H23         -0.6500   -21.9450     9.3900 hc         1 XPZ       0.037200
     52 H24         -1.8390   -19.8400    10.0490 hc         1 XPZ       0.036700
     53 H25         -2.7950   -22.1860    11.7900 hc         1 XPZ       0.037700
     54 H26         -1.1730   -21.5060    11.8530 hc         1 XPZ       0.037700
     55 H27         -2.4630   -20.5780    13.6710 hc         1 XPZ       0.031700
     56 H28         -2.1190   -19.2860    12.5290 hc         1 XPZ       0.031700
     57 H29         -4.4470   -19.4580    11.6140 hc         1 XPZ       0.041700
     58 H30         -4.7820   -20.8140    12.6920 hc         1 XPZ       0.041700
     59 H31         -4.4300   -19.3130    14.6760 hc         1 XPZ       0.032700
     60 H32         -4.0850   -17.9630    13.5950 hc         1 XPZ       0.032700
     61 H33         -6.4010   -18.1420    12.6340 hc         1 XPZ       0.039700
     62 H34         -6.7450   -19.4930    13.7150 hc         1 XPZ       0.039700
     63 H35         -6.3940   -17.9920    15.7020 hc         1 XPZ       0.033700
     64 H36         -6.0500   -16.6410    14.6220 hc         1 XPZ       0.033700
     65 H37         -8.4010   -16.5400    15.4390 hc         1 XPZ       0.030700
     66 H38         -8.3810   -16.7900    13.6800 hc         1 XPZ       0.030700
     67 H39         -8.7280   -18.1530    14.7710 hc         1 XPZ       0.030700
     68 H40         -1.7350   -21.3280     8.1510 hc         1 XPZ       0.037200
     69 H41         -3.3890   -20.6590     9.8990 hc         1 XPZ       0.036700
@<TRIPOS>BOND
     1     1     2 1   
     2     2     3 1   
     3     2     4 1   
     4     4     5 1   
     5     4    12 1   
     6     4    30 1   
     7     5     6 1   
     8     5    31 1   
     9     5    32 1   
    10     6     7 ar  
    11     6    11 ar  
    12     7     8 ar  
    13     7    33 1   
    14     8     9 ar  
    15     8    34 1   
    16     9    10 ar  
    17     9    35 1   
    18    10    11 ar  
    19    10    36 1   
    20    11    37 1   
    21    12    13 1   
    22    12    38 1   
    23    13    14 2   
    24    13    15 1   
    25    15    16 1   
    26    15    39 1   
    27    15    40 1   
    28    16    17 1   
    29    16    41 1   
    30    16    42 1   
    31    17    18 1   
    32    17    43 1   
    33    17    44 1   
    34    18    19 1   
    35    18    45 1   
    36    18    46 1   
    37    19    20 1   
    38    19    47 1   
    39    19    48 1   
    40    20    21 1   
    41    20    49 1   
    42    20    50 1   
    43    21    22 1   
    44    21    51 1   
    45    21    68 1   
    46    22    23 1   
    47    22    52 1   
    48    22    69 1   
    49    23    24 1   
    50    23    53 1   
    51    23    54 1   
    52    24    25 1   
    53    24    55 1   
    54    24    56 1   
    55    25    26 1   
    56    25    57 1   
    57    25    58 1   
    58    26    27 1   
    59    26    59 1   
    60    26    60 1   
    61    27    28 1   
    62    27    61 1   
    63    27    62 1   
    64    28    29 1   
    65    28    63 1   
    66    28    64 1   
    67    29    65 1   
    68    29    66 1   
    69    29    67 1   
@<TRIPOS>SUBSTRUCTURE
     1 XPZ         1 TEMP              0 ****  ****    0 ROOT
