@<TRIPOS>MOLECULE
XPZ
   69    69     1     0     0
SMALL
abcg2


@<TRIPOS>ATOM
      1 O3          -4.0260   -27.1430     4.4300 o          1 XPZ      -0.724000
      2 C18         -3.5550   -27.0550     3.2680 c          1 XPZ       0.708000
      3 O2          -4.0650   -26.4600     2.2900 o          1 XPZ      -0.724000
      4 C17         -2.2020   -27.7650     2.9950 c3         1 XPZ      -0.033300
      5 C19         -2.3740   -28.9270     1.9870 c3         1 XPZ      -0.031100
      6 C20         -3.2860   -30.0160     2.4840 ca         1 XPZ      -0.042300
      7 C25         -2.7850   -31.0740     3.2460 ca         1 XPZ      -0.098000
      8 C24         -3.6310   -32.0580     3.7470 ca         1 XPZ      -0.122500
      9 C23         -4.9980   -32.0010     3.4910 ca         1 XPZ      -0.134000
     10 C22         -5.5090   -30.9560     2.7280 ca         1 XPZ      -0.122500
     11 C21         -4.6590   -29.9740     2.2300 ca         1 XPZ      -0.098000
     12 N1          -1.6360   -28.2020     4.2540 ns         1 XPZ      -0.462900
     13 C16         -0.3340   -28.4120     4.4830 c          1 XPZ       0.581100
     14 O1           0.5220   -28.3520     3.5900 o          1 XPZ      -0.670100
     15 C15          0.0430   -28.7530     5.9170 c3         1 XPZ      -0.158400
     16 C14         -0.6600   -27.9230     6.9960 c3         1 XPZ      -0.069400
     17 C13         -0.4040   -26.4230     6.8650 c3         1 XPZ      -0.076400
     18 C12         -1.1940   -25.5850     7.8660 c3         1 XPZ      -0.073400
     19 C11         -1.0020   -24.0820     7.6770 c3         1 XPZ      -0.074400
     20 C10         -1.8250   -23.2350     8.6440 c3         1 XPZ      -0.075400
     21 C9          -1.6730   -21.7330     8.4090 c3         1 XPZ      -0.074400
     22 C8          -2.5580   -20.8630     9.3060 c3         1 XPZ      -0.073400
     23 C7          -2.1710   -20.8950    10.7860 c3         1 XPZ      -0.074400
     24 C6          -3.0440   -20.0090    11.6790 c3         1 XPZ      -0.071400
     25 C5          -4.4850   -20.4980    11.8220 c3         1 XPZ      -0.077400
     26 C4          -5.3190   -19.6600    12.7890 c3         1 XPZ      -0.074400
     27 C3          -6.7510   -20.1660    12.9440 c3         1 XPZ      -0.077400
     28 C2          -7.5900   -19.3430    13.9200 c3         1 XPZ      -0.075400
     29 C1          -9.0170   -19.8670    14.0670 c3         1 XPZ      -0.088100
     30 H2          -1.5280   -27.0360     2.5410 h1         1 XPZ       0.057700
     31 H3          -1.3850   -29.3370     1.7780 hc         1 XPZ       0.049200
     32 H4          -2.7630   -28.5000     1.0630 hc         1 XPZ       0.049200
     33 H5          -1.7210   -31.1260     3.4460 ha         1 XPZ       0.119500
     34 H6          -3.2230   -32.8710     4.3360 ha         1 XPZ       0.093500
     35 H7          -5.6580   -32.7680     3.8780 ha         1 XPZ       0.089000
     36 H8          -6.5700   -30.9050     2.5180 ha         1 XPZ       0.093500
     37 H9          -5.0620   -29.1590     1.6410 ha         1 XPZ       0.119500
     38 H10         -2.2960   -28.1750     5.0190 hn         1 XPZ       0.343500
     39 H11         -0.1710   -29.8160     6.0670 hc         1 XPZ       0.052200
     40 H12          1.1250   -28.6310     5.9900 hc         1 XPZ       0.052200
     41 H13         -1.7380   -28.1120     6.9740 hc         1 XPZ       0.039200
     42 H14         -0.3190   -28.2700     7.9750 hc         1 XPZ       0.039200
     43 H15          0.6680   -26.2280     6.9860 hc         1 XPZ       0.045700
     44 H16         -0.6640   -26.0970     5.8530 hc         1 XPZ       0.045700
     45 H17         -2.2590   -25.8240     7.7650 hc         1 XPZ       0.037200
     46 H18         -0.9100   -25.8660     8.8860 hc         1 XPZ       0.037200
     47 H19          0.0600   -23.8340     7.7900 hc         1 XPZ       0.038700
     48 H20         -1.2720   -23.8160     6.6480 hc         1 XPZ       0.038700
     49 H21         -2.8830   -23.5040     8.5460 hc         1 XPZ       0.036200
     50 H22         -1.5380   -23.4850     9.6700 hc         1 XPZ       0.036200
     51 H23         -0.6230   -21.4470     8.5470 hc         1 XPZ       0.037200
     52 H24         -2.5110   -19.8250     8.9590 hc         1 XPZ       0.036700
     53 H25         -2.2140   -21.9220    11.1600 hc         1 XPZ       0.037700
     54 H26         -1.1260   -20.5780    10.8770 hc         1 XPZ       0.037700
     55 H27         -2.5930   -19.9550    12.6750 hc         1 XPZ       0.031700
     56 H28         -3.0460   -18.9850    11.2870 hc         1 XPZ       0.031700
     57 H29         -4.9760   -20.5050    10.8450 hc         1 XPZ       0.041700
     58 H30         -4.4740   -21.5390    12.1670 hc         1 XPZ       0.041700
     59 H31         -4.8310   -19.6490    13.7710 hc         1 XPZ       0.032700
     60 H32         -5.3370   -18.6200    12.4450 hc         1 XPZ       0.032700
     61 H33         -7.2410   -20.1700    11.9630 hc         1 XPZ       0.039700
     62 H34         -6.7300   -21.2090    13.2790 hc         1 XPZ       0.039700
     63 H35         -7.0990   -19.3380    14.8990 hc         1 XPZ       0.033700
     64 H36         -7.6140   -18.3010    13.5840 hc         1 XPZ       0.033700
     65 H37         -9.5950   -19.2640    14.7710 hc         1 XPZ       0.030700
     66 H38         -9.5390   -19.8520    13.1070 hc         1 XPZ       0.030700
     67 H39         -9.0190   -20.8980    14.4290 hc         1 XPZ       0.030700
     68 H40         -1.9130   -21.5200     7.3620 hc         1 XPZ       0.037200
     69 H41         -3.5980   -21.1800     9.1850 hc         1 XPZ       0.036700
@<TRIPOS>BOND
     1     1     2 1   
     2     2     3 1   
     3     2     4 1   
     4     4     5 1   
     5     4    12 1   
     6     4    30 1   
     7     5     6 1   
     8     5    31 1   
     9     5    32 1   
    10     6     7 ar  
    11     6    11 ar  
    12     7     8 ar  
    13     7    33 1   
    14     8     9 ar  
    15     8    34 1   
    16     9    10 ar  
    17     9    35 1   
    18    10    11 ar  
    19    10    36 1   
    20    11    37 1   
    21    12    13 1   
    22    12    38 1   
    23    13    14 2   
    24    13    15 1   
    25    15    16 1   
    26    15    39 1   
    27    15    40 1   
    28    16    17 1   
    29    16    41 1   
    30    16    42 1   
    31    17    18 1   
    32    17    43 1   
    33    17    44 1   
    34    18    19 1   
    35    18    45 1   
    36    18    46 1   
    37    19    20 1   
    38    19    47 1   
    39    19    48 1   
    40    20    21 1   
    41    20    49 1   
    42    20    50 1   
    43    21    22 1   
    44    21    51 1   
    45    21    68 1   
    46    22    23 1   
    47    22    52 1   
    48    22    69 1   
    49    23    24 1   
    50    23    53 1   
    51    23    54 1   
    52    24    25 1   
    53    24    55 1   
    54    24    56 1   
    55    25    26 1   
    56    25    57 1   
    57    25    58 1   
    58    26    27 1   
    59    26    59 1   
    60    26    60 1   
    61    27    28 1   
    62    27    61 1   
    63    27    62 1   
    64    28    29 1   
    65    28    63 1   
    66    28    64 1   
    67    29    65 1   
    68    29    66 1   
    69    29    67 1   
@<TRIPOS>SUBSTRUCTURE
     1 XPZ         1 TEMP              0 ****  ****    0 ROOT
