@<TRIPOS>MOLECULE
XQ0
   19    20     1     0     0
SMALL
abcg2


@<TRIPOS>ATOM
      1 O3           3.4560    -0.3060     0.0810 oh         1 XQ0      -0.535100
      2 C3           2.1300    -0.0630     0.0600 ca         1 XQ0       0.174100
      3 C2           1.6330     1.2620     0.0420 ca         1 XQ0      -0.237000
      4 C4           1.2820    -1.1540     0.0580 ca         1 XQ0      -0.186000
      5 C5          -0.0880    -0.8810     0.0390 ca         1 XQ0       0.005800
      6 C6          -0.6040     0.4260     0.0230 ca         1 XQ0      -0.268900
      7 C1           0.2800     1.5100     0.0240 ca         1 XQ0       0.009000
      8 N2          -1.1650    -1.6970     0.0350 na         1 XQ0      -0.069400
      9 N1          -2.3230    -1.0150     0.0180 nc         1 XQ0      -0.522100
     10 C7          -2.0210     0.2580     0.0110 cd         1 XQ0       0.372900
     11 C8          -3.0600     1.3220    -0.0050 c3         1 XQ0      -0.103400
     12 H3           3.9520     0.5200     0.0990 ho         1 XQ0       0.467000
     13 H2           2.3310     2.0900     0.0420 ha         1 XQ0       0.113000
     14 H4           1.6690    -2.1650     0.0720 ha         1 XQ0       0.135000
     15 H1          -0.0840     2.5300     0.0120 ha         1 XQ0       0.118000
     16 HA          -1.1790    -2.7030     0.0390 hn         1 XQ0       0.377000
     17 H81C        -2.9600     1.9580    -0.8850 hc         1 XQ0       0.049700
     18 H82C        -4.0590     0.8900    -0.0110 hc         1 XQ0       0.049700
     19 H83C        -2.9750     1.9680     0.8700 hc         1 XQ0       0.049700
@<TRIPOS>BOND
     1     1     2 1   
     2     1    12 1   
     3     2     3 ar  
     4     2     4 ar  
     5     3     7 ar  
     6     3    13 1   
     7     4     5 ar  
     8     4    14 1   
     9     5     6 ar  
    10     5     8 1   
    11     6     7 ar  
    12     6    10 1   
    13     7    15 1   
    14     8     9 1   
    15     8    16 1   
    16     9    10 2   
    17    10    11 1   
    18    11    17 1   
    19    11    18 1   
    20    11    19 1   
@<TRIPOS>SUBSTRUCTURE
     1 XQ0         1 TEMP              0 ****  ****    0 ROOT
