@<TRIPOS>MOLECULE
XQ0
   19    20     1     0     0
SMALL
No Charge or Current Charge


@<TRIPOS>ATOM
      1 O3           3.4910    -0.2770     0.0790 oh         1 XQ0      -0.535100
      2 C3           2.1480    -0.0610     0.0620 ca         1 XQ0       0.174100
      3 C2           1.6470     1.2620     0.0470 ca         1 XQ0      -0.237000
      4 C4           1.2670    -1.1600     0.0600 ca         1 XQ0      -0.186000
      5 C5          -0.1060    -0.8930     0.0420 ca         1 XQ0       0.005800
      6 C6          -0.5850     0.3770     0.0280 ca         1 XQ0      -0.268900
      7 C1           0.2550     1.4980     0.0300 ca         1 XQ0       0.009000
      8 N2          -1.1800    -1.7620     0.0350 na         1 XQ0      -0.069400
      9 N1          -2.3910    -1.0420     0.0160 nc         1 XQ0      -0.522100
     10 C7          -2.0210     0.2500     0.0120 cd         1 XQ0       0.372900
     11 C8          -3.0370     1.3570    -0.0080 c3         1 XQ0      -0.103400
     12 H3           3.9400     0.5960     0.0790 ho         1 XQ0       0.467000
     13 H2           2.3290     2.1090     0.0500 ha         1 XQ0       0.113000
     14 H4           1.6450    -2.1800     0.0710 ha         1 XQ0       0.135000
     15 H1          -0.1470     2.5100     0.0180 ha         1 XQ0       0.118000
     16 HA          -1.1430    -2.7800     0.0430 hn         1 XQ0       0.377000
     17 H81C        -2.9080     1.9830    -0.8980 hc         1 XQ0       0.049700
     18 H82C        -4.0610     0.9660    -0.0160 hc         1 XQ0       0.049700
     19 H83C        -2.9270     1.9970     0.8750 hc         1 XQ0       0.049700
@<TRIPOS>BOND
     1     1     2 1   
     2     1    12 1   
     3     2     3 ar  
     4     2     4 ar  
     5     3     7 ar  
     6     3    13 1   
     7     4     5 ar  
     8     4    14 1   
     9     5     6 ar  
    10     5     8 1   
    11     6     7 ar  
    12     6    10 1   
    13     7    15 1   
    14     8     9 1   
    15     8    16 1   
    16     9    10 2   
    17    10    11 1   
    18    11    17 1   
    19    11    18 1   
    20    11    19 1   
@<TRIPOS>SUBSTRUCTURE
     1 XQ0         1 TEMP              0 ****  ****    0 ROOT
