@<TRIPOS>MOLECULE
XQ1
   34    36     1     0     0
SMALL
No Charge or Current Charge


@<TRIPOS>ATOM
      1 C4          19.5710   -12.9150     6.6790 ca         1 XQ1      -0.141000
      2 C3          19.3230   -13.8600     7.6880 ca         1 XQ1      -0.083000
      3 C7          18.6270   -12.0300     3.1370 ca         1 XQ1      -0.145000
      4 C5          19.2450   -13.1840     5.3260 cp         1 XQ1       0.030000
      5 C8          18.8630   -11.0830     2.1160 ca         1 XQ1      -0.032000
      6 C1          18.4100   -15.3930     6.0320 ca         1 XQ1       0.131100
      7 C2          18.7430   -15.0960     7.3620 ca         1 XQ1      -0.159000
      8 C6          19.5120   -12.1730     4.2520 cp         1 XQ1      -0.050000
      9 C           17.4650   -17.0310     4.4430 c3         1 XQ1       0.150900
     10 O           17.8460   -16.6250     5.7700 os         1 XQ1      -0.352100
     11 C10         20.5110    -9.2300     1.3510 cc         1 XQ1      -0.041400
     12 C11         19.9210    -8.7400     0.0530 c3         1 XQ1      -0.166200
     13 C12         18.7700    -7.7450     0.2780 c          1 XQ1       0.725000
     14 C13         21.6700    -8.8020     1.9900 cd         1 XQ1      -0.121900
     15 C14         20.8570   -10.4000     3.2880 ca         1 XQ1       0.051100
     16 C15         20.6550   -11.3250     4.3160 ca         1 XQ1      -0.109000
     17 C16         18.6610   -14.4400     5.0210 ca         1 XQ1      -0.190000
     18 C9          20.0010   -10.2750     2.2220 ca         1 XQ1      -0.089800
     19 O1          17.6400    -8.1920     0.4170 o          1 XQ1      -0.725000
     20 O2          19.0510    -6.5640     0.4240 o          1 XQ1      -0.725000
     21 O3          21.8720    -9.5080     3.1510 os         1 XQ1      -0.197200
     22 H1          20.0080   -11.9580     6.9520 ha         1 XQ1       0.121000
     23 H2          19.5760   -13.6330     8.7210 ha         1 XQ1       0.105000
     24 H3          17.7390   -12.6530     3.0710 ha         1 XQ1       0.103000
     25 H4          18.1790   -10.9810     1.2760 ha         1 XQ1       0.153000
     26 H5          18.5510   -15.8270     8.1430 ha         1 XQ1       0.115000
     27 H6          17.0360   -18.0410     4.4630 h1         1 XQ1       0.037367
     28 H7          16.7110   -16.3490     4.0290 h1         1 XQ1       0.037367
     29 H8          18.3350   -17.0440     3.7740 h1         1 XQ1       0.037367
     30 H9          19.5480    -9.6290    -0.4700 hc         1 XQ1       0.031700
     31 H10         20.7380    -8.2420    -0.4830 hc         1 XQ1       0.031700
     32 H11         22.3940    -8.0390     1.7200 h4         1 XQ1       0.227000
     33 H12         21.3680   -11.3960     5.1330 ha         1 XQ1       0.115000
     34 H13         18.4230   -14.6630     3.9860 ha         1 XQ1       0.121000
@<TRIPOS>BOND
     1     1     2 ar  
     2     1     4 ar  
     3     1    22 1   
     4     2     7 ar  
     5     2    23 1   
     6     3     5 ar  
     7     3     8 ar  
     8     3    24 1   
     9     4     8 1   
    10     4    17 ar  
    11     5    18 ar  
    12     5    25 1   
    13     6     7 ar  
    14     6    10 1   
    15     6    17 ar  
    16     7    26 1   
    17     8    16 ar  
    18     9    10 1   
    19     9    27 1   
    20     9    28 1   
    21     9    29 1   
    22    11    12 1   
    23    11    14 2   
    24    11    18 1   
    25    12    13 1   
    26    12    30 1   
    27    12    31 1   
    28    13    19 1   
    29    13    20 1   
    30    14    21 1   
    31    14    32 1   
    32    15    16 ar  
    33    15    18 ar  
    34    15    21 1   
    35    16    33 1   
    36    17    34 1   
@<TRIPOS>SUBSTRUCTURE
     1 XQ1         1 TEMP              0 ****  ****    0 ROOT
