@<TRIPOS>MOLECULE
XQ1
   34    36     1     0     0
SMALL
bcc


@<TRIPOS>ATOM
      1 C4          19.5180   -12.8450     6.6380 ca         1 XQ1      -0.159000
      2 C3          19.2480   -13.7820     7.6270 ca         1 XQ1      -0.101000
      3 C7          18.5750   -11.9580     3.2020 ca         1 XQ1      -0.163000
      4 C5          19.2300   -13.1390     5.3080 cp         1 XQ1       0.030000
      5 C8          18.7910   -11.0430     2.1880 ca         1 XQ1      -0.050000
      6 C1          18.4070   -15.3150     5.9800 ca         1 XQ1       0.131100
      7 C2          18.6970   -15.0110     7.3120 ca         1 XQ1      -0.177000
      8 C6          19.5060   -12.1550     4.2400 cp         1 XQ1      -0.050000
      9 C           17.5880   -16.9050     4.4190 c3         1 XQ1       0.127700
     10 O           17.8840   -16.5340     5.7500 os         1 XQ1      -0.328900
     11 C10         20.5580    -9.3020     1.3500 cc         1 XQ1      -0.041400
     12 C11         19.9470    -8.7290     0.1190 c3         1 XQ1      -0.166200
     13 C12         18.6480    -7.9480     0.4600 c          1 XQ1       0.935600
     14 C13         21.7390    -9.0020     1.9280 cd         1 XQ1      -0.071900
     15 C14         20.8870   -10.5150     3.2350 ca         1 XQ1       0.051100
     16 C15         20.6870   -11.4170     4.2630 ca         1 XQ1      -0.127000
     17 C16         18.6740   -14.3800     4.9850 ca         1 XQ1      -0.208000
     18 C9          19.9750   -10.3080     2.2010 ca         1 XQ1      -0.089800
     19 O1          17.5750    -8.4310     0.0510 o          1 XQ1      -0.830300
     20 O2          18.8060    -6.9110     1.1290 o          1 XQ1      -0.830300
     21 O3          21.9660    -9.7220     3.0670 os         1 XQ1      -0.197200
     22 H1          19.9270   -11.8800     6.9070 ha         1 XQ1       0.139000
     23 H2          19.4630   -13.5470     8.6620 ha         1 XQ1       0.123000
     24 H3          17.6510   -12.5240     3.2110 ha         1 XQ1       0.121000
     25 H4          18.0530   -10.8900     1.4110 ha         1 XQ1       0.171000
     26 H5          18.4870   -15.7380     8.0850 ha         1 XQ1       0.133000
     27 H6          17.1860   -17.9150     4.4620 h1         1 XQ1       0.037367
     28 H7          16.8400   -16.2490     3.9670 h1         1 XQ1       0.037367
     29 H8          18.4800   -16.9090     3.7880 h1         1 XQ1       0.037367
     30 H9          19.7380    -9.5330    -0.5910 hc         1 XQ1       0.031700
     31 H10         20.6640    -8.0520    -0.3540 hc         1 XQ1       0.031700
     32 H11         22.5170    -8.3070     1.6480 h4         1 XQ1       0.177000
     33 H12         21.4280   -11.5630     5.0390 ha         1 XQ1       0.133000
     34 H13         18.4790   -14.6080     3.9450 ha         1 XQ1       0.139000
@<TRIPOS>BOND
     1     1     2 ar  
     2     1     4 ar  
     3     1    22 1   
     4     2     7 ar  
     5     2    23 1   
     6     3     5 ar  
     7     3     8 ar  
     8     3    24 1   
     9     4     8 1   
    10     4    17 ar  
    11     5    18 ar  
    12     5    25 1   
    13     6     7 ar  
    14     6    10 1   
    15     6    17 ar  
    16     7    26 1   
    17     8    16 ar  
    18     9    10 1   
    19     9    27 1   
    20     9    28 1   
    21     9    29 1   
    22    11    12 1   
    23    11    14 2   
    24    11    18 1   
    25    12    13 1   
    26    12    30 1   
    27    12    31 1   
    28    13    19 1   
    29    13    20 1   
    30    14    21 1   
    31    14    32 1   
    32    15    16 ar  
    33    15    18 ar  
    34    15    21 1   
    35    16    33 1   
    36    17    34 1   
@<TRIPOS>SUBSTRUCTURE
     1 XQ1         1 TEMP              0 ****  ****    0 ROOT
