@<TRIPOS>MOLECULE
XQ3
   74    77     1     0     0
SMALL
No Charge or Current Charge


@<TRIPOS>ATOM
      1 C10        164.3600   109.5260   159.4110 ca         1 XQ3      -0.091800
      2 C13        164.9110   110.2810   162.0380 ca         1 XQ3      -0.089000
      3 C15        165.6640   109.5420   159.8590 ca         1 XQ3      -0.165000
      4 C20        165.9960   111.0900   153.9080 c6         1 XQ3       0.071000
      5 C21        166.8000   112.3860   153.6550 c6         1 XQ3       0.082000
      6 C24        164.0330   112.1630   152.7190 c6         1 XQ3       0.071000
      7 C26        165.5630   116.1220   153.8260 c3         1 XQ3       0.139500
      8 Cl34       166.8830   113.4960   157.3460 cl         1 XQ3      -0.148000
      9 Cl37       162.0470   111.3850   156.1970 cl         1 XQ3      -0.181000
     10 C01        164.4440   105.3360   155.1830 c3         1 XQ3      -0.087600
     11 C03        164.2060   104.5960   152.7730 c3         1 XQ3      -0.087600
     12 C04        163.9650   107.0820   153.3120 c3         1 XQ3      -0.080400
     13 C05        164.6740   108.4010   153.7450 c3         1 XQ3       0.043700
     14 N06        164.6710   108.5810   155.2160 ns         1 XQ3      -0.495900
     15 C08        165.5250   108.8630   157.4470 cc         1 XQ3      -0.138600
     16 C09        164.2910   109.1250   158.0290 cd         1 XQ3      -0.136200
     17 C11        163.2920   109.8850   160.2470 ca         1 XQ3      -0.065000
     18 C12        163.5770   110.2650   161.5740 ca         1 XQ3      -0.114000
     19 C14        165.9670   109.9170   161.1770 ca         1 XQ3      -0.083000
     20 S16        166.8560   109.0360   158.6250 ss         1 XQ3       0.153400
     21 O17        166.9010   108.3110   155.5800 o          1 XQ3      -0.612100
     22 C18        164.0460   109.6730   153.0720 c          1 XQ3       0.588100
     23 N19        164.7480   110.9100   153.1070 n          1 XQ3      -0.407800
     24 N22        165.9540   113.5980   153.5450 n          1 XQ3      -0.407800
     25 C23        164.9090   113.4190   152.5040 c6         1 XQ3       0.082000
     26 C25        166.5140   114.8720   153.8280 c          1 XQ3       0.582100
     27 C27        165.6730   116.8690   152.4680 c3         1 XQ3       0.175600
     28 O28        166.9340   117.5560   152.3500 oh         1 XQ3      -0.648000
     29 N29        165.7730   117.0950   154.9550 n7         1 XQ3      -0.847300
     30 S30        165.6860   116.6240   156.5570 sy         1 XQ3       1.177600
     31 O31        164.8680   117.6580   157.1970 o          1 XQ3      -0.533000
     32 C32        164.7210   115.0940   156.4860 ca         1 XQ3      -0.309500
     33 C33        165.2310   113.8100   156.8180 ca         1 XQ3       0.219000
     34 C35        164.3930   112.6870   156.7420 ca         1 XQ3      -0.120000
     35 C36        163.0630   112.8130   156.3300 ca         1 XQ3       0.168000
     36 C38        162.5430   114.0750   156.0200 ca         1 XQ3      -0.132000
     37 C39        163.3610   115.2120   156.1140 ca         1 XQ3      -0.010000
     38 O40        167.0700   116.3810   156.9550 o          1 XQ3      -0.533000
     39 O41        167.6880   114.9680   154.1730 o          1 XQ3      -0.591100
     40 O42        162.9470   109.6180   152.5300 o          1 XQ3      -0.604100
     41 H131       165.1250   110.5760   163.0630 ha         1 XQ3       0.117000
     42 H202       165.7230   111.0730   154.9700 h1         1 XQ3       0.069700
     43 H201       166.6760   110.2460   153.7340 h1         1 XQ3       0.069700
     44 H212       167.3690   112.2720   152.7210 h1         1 XQ3       0.069200
     45 H211       167.5330   112.5010   154.4670 h1         1 XQ3       0.069200
     46 H242       163.3010   112.3890   153.5070 h1         1 XQ3       0.069700
     47 H241       163.4580   111.9890   151.7980 h1         1 XQ3       0.069700
     48 H261       164.5390   115.7400   153.8820 h1         1 XQ3       0.078700
     49 H011       164.9230   106.0320   155.8760 hc         1 XQ3       0.034200
     50 H013       163.3750   105.2910   155.4210 hc         1 XQ3       0.034200
     51 H012       164.8750   104.3460   155.3770 hc         1 XQ3       0.034200
     52 H021       165.7440   105.8690   153.5490 hc         1 XQ3       0.054700
     53 H032       164.7270   103.6630   153.0200 hc         1 XQ3       0.034200
     54 H033       163.1270   104.4230   152.8680 hc         1 XQ3       0.034200
     55 H031       164.4250   104.8320   151.7250 hc         1 XQ3       0.034200
     56 H042       163.8870   107.1090   152.2180 hc         1 XQ3       0.060700
     57 H041       162.9320   107.0780   153.6850 hc         1 XQ3       0.060700
     58 H051       165.7090   108.3470   153.3850 h1         1 XQ3       0.092700
     59 H061       163.7890   108.7840   155.6670 hn         1 XQ3       0.324500
     60 H091       163.3450   109.0660   157.5000 ha         1 XQ3       0.201000
     61 H111       162.2680   109.8730   159.8800 ha         1 XQ3       0.118000
     62 H121       162.7660   110.5490   162.2420 ha         1 XQ3       0.118000
     63 H141       166.9960   109.9260   161.5300 ha         1 XQ3       0.125000
     64 H231       165.4100   113.3270   151.5290 h1         1 XQ3       0.069200
     65 H232       164.2450   114.2890   152.4340 h1         1 XQ3       0.069200
     66 H272       164.8480   117.5910   152.4020 h1         1 XQ3       0.037200
     67 H271       165.5490   116.1530   151.6450 h1         1 XQ3       0.037200
     68 H281       166.8990   118.0830   151.5200 ho         1 XQ3       0.449000
     69 H291       166.7440   117.4090   154.9150 hn         1 XQ3       0.519000
     70 H351       164.7820   111.7100   157.0060 ha         1 XQ3       0.152000
     71 H381       161.5050   114.1740   155.7120 ha         1 XQ3       0.139000
     72 H391       162.9380   116.1880   155.8750 ha         1 XQ3       0.149000
     73 C07        165.7870   108.5460   156.0250 c          1 XQ3       0.636300
     74 C02        164.6640   105.7440   153.7040 c3         1 XQ3      -0.062700
@<TRIPOS>BOND
     1     1     3 ar  
     2     1    16 1   
     3     1    17 ar  
     4     2    18 ar  
     5     2    19 ar  
     6     2    41 1   
     7     3    19 ar  
     8     3    20 1   
     9     4     5 1   
    10     4    23 1   
    11     4    42 1   
    12     4    43 1   
    13     5    24 1   
    14     5    44 1   
    15     5    45 1   
    16     6    23 1   
    17     6    25 1   
    18     6    46 1   
    19     6    47 1   
    20     7    26 1   
    21     7    27 1   
    22     7    29 1   
    23     7    48 1   
    24     8    33 1   
    25     9    35 1   
    26    10    49 1   
    27    10    50 1   
    28    10    51 1   
    29    10    74 1   
    30    11    53 1   
    31    11    54 1   
    32    11    55 1   
    33    11    74 1   
    34    12    13 1   
    35    12    56 1   
    36    12    57 1   
    37    12    74 1   
    38    13    14 1   
    39    13    22 1   
    40    13    58 1   
    41    14    59 1   
    42    14    73 1   
    43    15    16 2   
    44    15    20 1   
    45    15    73 1   
    46    16    60 1   
    47    17    18 ar  
    48    17    61 1   
    49    18    62 1   
    50    19    63 1   
    51    21    73 2   
    52    22    23 1   
    53    22    40 2   
    54    24    25 1   
    55    24    26 1   
    56    25    64 1   
    57    25    65 1   
    58    26    39 2   
    59    27    28 1   
    60    27    66 1   
    61    27    67 1   
    62    28    68 1   
    63    29    30 1   
    64    29    69 1   
    65    30    31 2   
    66    30    32 1   
    67    30    38 2   
    68    32    33 ar  
    69    32    37 ar  
    70    33    34 ar  
    71    34    35 ar  
    72    34    70 1   
    73    35    36 ar  
    74    36    37 ar  
    75    36    71 1   
    76    37    72 1   
    77    52    74 1   
@<TRIPOS>SUBSTRUCTURE
     1 XQ3         1 TEMP              0 ****  ****    0 ROOT
