@<TRIPOS>MOLECULE
XQ3
   74    77     1     0     0
SMALL
abcg2


@<TRIPOS>ATOM
      1 C10        164.0590   108.4520   159.7790 ca         1 XQ3      -0.091800
      2 C13        164.7440   108.5940   162.4780 ca         1 XQ3      -0.089000
      3 C15        165.3950   108.6860   160.1850 ca         1 XQ3      -0.165000
      4 C20        165.7120   111.4420   154.2690 c6         1 XQ3       0.071000
      5 C21        166.6510   112.2870   153.4180 c6         1 XQ3       0.082000
      6 C24        163.7960   112.4760   153.1540 c6         1 XQ3       0.071000
      7 C26        165.7830   116.0150   153.0760 c3         1 XQ3       0.139500
      8 CL34       167.2740   116.0300   157.1840 cl         1 XQ3      -0.148000
      9 CL37       163.9990   111.8740   158.0260 cl         1 XQ3      -0.181000
     10 C01        164.2600   105.5840   154.9620 c3         1 XQ3      -0.087600
     11 C03        164.4300   105.2350   152.4870 c3         1 XQ3      -0.087600
     12 C04        163.8880   107.5330   153.3380 c3         1 XQ3      -0.080400
     13 C05        164.4730   108.7870   153.9870 c3         1 XQ3       0.043700
     14 N06        164.3680   108.7930   155.4400 ns         1 XQ3      -0.495900
     15 C08        165.1190   108.6240   157.7140 cc         1 XQ3      -0.138600
     16 C09        163.9350   108.4210   158.3550 cd         1 XQ3      -0.136200
     17 C11        163.0650   108.2870   160.7580 ca         1 XQ3      -0.065000
     18 C12        163.4120   108.3590   162.0930 ca         1 XQ3      -0.114000
     19 C14        165.7430   108.7580   161.5340 ca         1 XQ3      -0.083000
     20 S16        166.4550   108.8500   158.8160 ss         1 XQ3       0.153400
     21 O17        166.5930   108.6340   155.8740 o          1 XQ3      -0.612100
     22 C18        163.7800   110.0590   153.4560 c          1 XQ3       0.588100
     23 N19        164.4420   111.2350   153.5780 n          1 XQ3      -0.407800
     24 N22        166.0020   113.5410   153.0430 n          1 XQ3      -0.407800
     25 C23        164.7500   113.3270   152.3230 c6         1 XQ3       0.082000
     26 C25        166.5060   114.7150   153.4710 c          1 XQ3       0.582100
     27 C27        166.1720   116.4710   151.6730 c3         1 XQ3       0.175600
     28 O28        167.5790   116.6680   151.6270 oh         1 XQ3      -0.648000
     29 N29        166.1080   117.0570   154.0570 n7         1 XQ3      -0.847300
     30 S30        165.0030   117.4080   155.2110 sy         1 XQ3       1.177600
     31 O31        163.7630   117.6990   154.5370 o          1 XQ3      -0.533000
     32 C32        164.7350   115.9020   156.1330 ca         1 XQ3      -0.309500
     33 C33        165.7240   115.2960   156.9160 ca         1 XQ3       0.219000
     34 C35        165.4930   114.0630   157.5100 ca         1 XQ3      -0.120000
     35 C36        164.2630   113.4450   157.3280 ca         1 XQ3       0.168000
     36 C38        163.2550   114.0410   156.5860 ca         1 XQ3      -0.132000
     37 C39        163.5040   115.2650   155.9860 ca         1 XQ3      -0.010000
     38 O40        165.5930   118.4080   156.0620 o          1 XQ3      -0.533000
     39 O41        167.5350   114.7930   154.1430 o          1 XQ3      -0.591100
     40 O42        162.6560   109.9890   152.9580 o          1 XQ3      -0.604100
     41 H131       164.9930   108.6450   163.5300 ha         1 XQ3       0.117000
     42 H202       165.5180   111.9570   155.2150 h1         1 XQ3       0.069700
     43 H201       166.1940   110.4990   154.4980 h1         1 XQ3       0.069700
     44 H212       166.9160   111.7450   152.5060 h1         1 XQ3       0.069200
     45 H211       167.5550   112.5130   153.9730 h1         1 XQ3       0.069200
     46 H242       163.4850   113.0380   154.0380 h1         1 XQ3       0.069700
     47 H241       162.9160   112.2270   152.5710 h1         1 XQ3       0.069700
     48 H261       164.7040   115.8840   153.0780 h1         1 XQ3       0.078700
     49 H011       164.4530   106.2300   155.8160 hc         1 XQ3       0.034200
     50 H013       163.1930   105.3410   154.9630 hc         1 XQ3       0.034200
     51 H012       164.8140   104.6550   155.1140 hc         1 XQ3       0.034200
     52 H021       165.7230   106.4640   153.6630 hc         1 XQ3       0.054700
     53 H032       164.9680   104.3020   152.6710 hc         1 XQ3       0.034200
     54 H033       163.3670   104.9940   152.3890 hc         1 XQ3       0.034200
     55 H031       164.7710   105.6440   151.5340 hc         1 XQ3       0.034200
     56 H042       163.9010   107.7130   152.2610 hc         1 XQ3       0.060700
     57 H041       162.8380   107.4230   153.6190 hc         1 XQ3       0.060700
     58 H051       165.5340   108.8240   153.7540 h1         1 XQ3       0.092700
     59 H061       163.4400   108.8340   155.8330 hn         1 XQ3       0.324500
     60 H091       162.9930   108.2460   157.8550 ha         1 XQ3       0.201000
     61 H111       162.0410   108.1070   160.4580 ha         1 XQ3       0.118000
     62 H121       162.6530   108.2340   162.8540 ha         1 XQ3       0.118000
     63 H141       166.7670   108.9360   161.8350 ha         1 XQ3       0.125000
     64 H231       164.9790   112.8180   151.3830 h1         1 XQ3       0.069200
     65 H232       164.2680   114.2680   152.0810 h1         1 XQ3       0.069200
     66 H272       165.6350   117.4000   151.4590 h1         1 XQ3       0.037200
     67 H271       165.8580   115.7110   150.9500 h1         1 XQ3       0.037200
     68 H281       167.8070   117.0280   150.7610 ho         1 XQ3       0.449000
     69 H291       167.0420   116.9420   154.4430 hn         1 XQ3       0.519000
     70 H351       166.2660   113.5910   158.0980 ha         1 XQ3       0.152000
     71 H381       162.3000   113.5510   156.4600 ha         1 XQ3       0.139000
     72 H391       162.7410   115.7320   155.3810 ha         1 XQ3       0.149000
     73 C07        165.4250   108.6800   156.2710 c          1 XQ3       0.636300
     74 C02        164.6530   106.2300   153.6300 c3         1 XQ3      -0.062700
@<TRIPOS>BOND
     1     1     3 ar  
     2     1    16 1   
     3     1    17 ar  
     4     2    18 ar  
     5     2    19 ar  
     6     2    41 1   
     7     3    19 ar  
     8     3    20 1   
     9     4     5 1   
    10     4    23 1   
    11     4    42 1   
    12     4    43 1   
    13     5    24 1   
    14     5    44 1   
    15     5    45 1   
    16     6    23 1   
    17     6    25 1   
    18     6    46 1   
    19     6    47 1   
    20     7    26 1   
    21     7    27 1   
    22     7    29 1   
    23     7    48 1   
    24     8    33 1   
    25     9    35 1   
    26    10    49 1   
    27    10    50 1   
    28    10    51 1   
    29    10    74 1   
    30    11    53 1   
    31    11    54 1   
    32    11    55 1   
    33    11    74 1   
    34    12    13 1   
    35    12    56 1   
    36    12    57 1   
    37    12    74 1   
    38    13    14 1   
    39    13    22 1   
    40    13    58 1   
    41    14    59 1   
    42    14    73 1   
    43    15    16 2   
    44    15    20 1   
    45    15    73 1   
    46    16    60 1   
    47    17    18 ar  
    48    17    61 1   
    49    18    62 1   
    50    19    63 1   
    51    21    73 2   
    52    22    23 1   
    53    22    40 2   
    54    24    25 1   
    55    24    26 1   
    56    25    64 1   
    57    25    65 1   
    58    26    39 2   
    59    27    28 1   
    60    27    66 1   
    61    27    67 1   
    62    28    68 1   
    63    29    30 1   
    64    29    69 1   
    65    30    31 2   
    66    30    32 1   
    67    30    38 2   
    68    32    33 ar  
    69    32    37 ar  
    70    33    34 ar  
    71    34    35 ar  
    72    34    70 1   
    73    35    36 ar  
    74    36    37 ar  
    75    36    71 1   
    76    37    72 1   
    77    52    74 1   
@<TRIPOS>SUBSTRUCTURE
     1 XQ3         1 TEMP              0 ****  ****    0 ROOT
