@<TRIPOS>MOLECULE
XQ4
  102   105     1     0     0
SMALL
No Charge or Current Charge


@<TRIPOS>ATOM
      1 N1          24.3180   -24.6570   -44.3690 n          1 XQ4      -0.239400
      2 C2          30.9750   -20.2890   -48.2390 c3         1 XQ4       0.209500
      3 N3          22.1870   -25.1100   -49.2030 n7         1 XQ4      -0.864400
      4 C4          29.7570   -22.5330   -48.1410 ce         1 XQ4      -0.170000
      5 C5          28.5990   -23.3890   -48.4290 ce         1 XQ4      -0.183000
      6 C6          28.4180   -24.6740   -48.0350 c2         1 XQ4      -0.105400
      7 N6          32.0140   -18.6460   -46.6850 ns         1 XQ4      -0.575900
      8 C8          27.1670   -25.4560   -48.4100 c3         1 XQ4       0.001100
      9 C41         28.6380   -22.2630   -43.4720 cx         1 XQ4       0.075000
     10 C42         29.5010   -23.2280   -44.2930 c3         1 XQ4      -0.083100
     11 C49         32.7320   -18.5310   -45.5240 c          1 XQ4       0.715100
     12 C48         30.8300   -19.4430   -46.9120 c6         1 XQ4       0.371400
     13 C47         30.5240   -20.3350   -45.7000 c6         1 XQ4      -0.164400
     14 O12         29.7830   -18.5090   -47.0890 oh         1 XQ4      -0.704000
     15 O1          31.0630   -19.3670   -49.3510 os         1 XQ4      -0.441000
     16 C1          31.5010   -19.9410   -50.5970 c3         1 XQ4       0.143900
     17 C3          29.8180   -21.2360   -48.5140 c2         1 XQ4      -0.243200
     18 C7          29.3890   -25.5090   -47.2080 c3         1 XQ4      -0.059900
     19 C9          26.3860   -25.9910   -47.2130 ca         1 XQ4      -0.055300
     20 C10         25.7210   -25.1060   -46.3460 ca         1 XQ4      -0.108000
     21 C53         26.3230   -27.3750   -46.9740 ca         1 XQ4      -0.120000
     22 C51         25.6120   -27.8750   -45.8610 ca         1 XQ4       0.115100
     23 O15         25.5630   -29.2300   -45.5740 os         1 XQ4      -0.349100
     24 C52         26.2270   -30.2180   -46.3820 c3         1 XQ4       0.148900
     25 C50         24.9350   -26.9780   -45.0060 ca         1 XQ4       0.084000
     26 Cl1         24.1060   -27.6140   -43.5760 cl         1 XQ4      -0.164000
     27 C11         24.9380   -25.5880   -45.2780 ca         1 XQ4      -0.044000
     28 C12         22.8430   -24.7140   -44.2460 c3         1 XQ4       0.091300
     29 C13         25.0160   -23.7880   -43.4870 c          1 XQ4       0.625100
     30 O2          24.4000   -23.0580   -42.7160 o          1 XQ4      -0.597100
     31 C14         26.5480   -23.8030   -43.4330 c3         1 XQ4      -0.160400
     32 O14         32.1600   -19.1140   -44.4240 os         1 XQ4      -0.441100
     33 C46         30.7940   -19.5670   -44.4050 c6         1 XQ4       0.193300
     34 C44         30.5930   -20.4060   -43.0980 c3         1 XQ4      -0.048700
     35 C45         30.9720   -19.5990   -41.8290 c3         1 XQ4      -0.083100
     36 C43         29.1660   -20.9490   -42.9260 cx         1 XQ4       0.095300
     37 O11         29.0390   -22.1210   -42.0880 op         1 XQ4      -0.423000
     38 C15         27.1190   -22.3970   -43.7140 c3         1 XQ4       0.194300
     39 O3          26.8090   -22.1020   -45.0900 os         1 XQ4      -0.441100
     40 C16         26.6730   -20.7940   -45.4860 c          1 XQ4       0.586100
     41 O4          26.8100   -19.8350   -44.7370 o          1 XQ4      -0.480000
     42 C17         26.1230   -20.7040   -46.9350 c3         1 XQ4       0.054700
     43 C18         26.0390   -19.2450   -47.4450 c3         1 XQ4      -0.099100
     44 N2          24.8110   -21.4080   -47.1020 n          1 XQ4      -0.404800
     45 C19         23.7500   -21.1410   -46.0990 c3         1 XQ4       0.078300
     46 C20         24.5570   -22.2030   -48.2440 c          1 XQ4       0.609100
     47 O5          25.3200   -22.1860   -49.2000 o          1 XQ4      -0.610100
     48 C21         23.3300   -23.1300   -48.2290 c3         1 XQ4      -0.201400
     49 C22         23.3000   -24.1540   -49.3790 c3         1 XQ4       0.170800
     50 C23         22.3840   -26.1610   -48.1810 c3         1 XQ4       0.145100
     51 H1          31.9030   -20.8710   -48.1570 h1         1 XQ4       0.042700
     52 H2          21.3300   -24.5850   -48.9870 hn         1 XQ4       0.411000
     53 H4          30.5950   -22.9710   -47.5990 ha         1 XQ4       0.163000
     54 H5          27.8200   -22.9170   -49.0300 ha         1 XQ4       0.197000
     55 H6          32.4400   -18.2140   -47.4920 hn         1 XQ4       0.347500
     56 H7          26.5010   -24.8280   -49.0130 hc         1 XQ4       0.062200
     57 H8          27.4470   -26.2810   -49.0770 hc         1 XQ4       0.062200
     58 H9          30.5700   -23.1070   -44.0970 hc         1 XQ4       0.053700
     59 H10         29.2600   -24.2710   -44.0600 hc         1 XQ4       0.053700
     60 H11         29.3370   -23.0840   -45.3660 hc         1 XQ4       0.053700
     61 H12         29.4830   -20.6730   -45.7450 hc         1 XQ4       0.078700
     62 H13         31.1600   -21.2290   -45.7290 hc         1 XQ4       0.078700
     63 H14         29.8740   -18.2460   -48.0330 ho         1 XQ4       0.512000
     64 H15         31.5720   -19.1650   -51.3680 h1         1 XQ4       0.034700
     65 H16         32.4910   -20.4020   -50.4860 h1         1 XQ4       0.034700
     66 H17         30.7990   -20.7070   -50.9510 h1         1 XQ4       0.034700
     67 H18         28.9890   -20.7730   -49.0520 ha         1 XQ4       0.207000
     68 H19         29.0090   -25.6600   -46.1910 hc         1 XQ4       0.043033
     69 H20         29.5330   -26.5000   -47.6540 hc         1 XQ4       0.043033
     70 H21         30.3820   -25.0590   -47.1230 hc         1 XQ4       0.043033
     71 H22         25.7910   -24.0370   -46.5220 ha         1 XQ4       0.137000
     72 H23         26.8450   -28.0460   -47.6480 ha         1 XQ4       0.131000
     73 H24         26.0570   -31.2210   -45.9710 h1         1 XQ4       0.041033
     74 H25         25.8440   -30.2030   -47.4100 h1         1 XQ4       0.041033
     75 H26         27.3100   -30.0400   -46.4050 h1         1 XQ4       0.041033
     76 H27         22.5640   -24.9830   -43.2190 h1         1 XQ4       0.046033
     77 H28         22.4090   -23.7370   -44.4940 h1         1 XQ4       0.046033
     78 H29         22.4320   -25.4660   -44.9310 h1         1 XQ4       0.046033
     79 H30         26.9740   -24.5400   -44.1170 hc         1 XQ4       0.087200
     80 H31         26.8340   -24.0830   -42.4130 hc         1 XQ4       0.087200
     81 H32         30.1360   -18.6850   -44.3640 h1         1 XQ4       0.057700
     82 H33         31.2900   -21.2510   -43.1320 hc         1 XQ4       0.071700
     83 H34         30.8260   -20.2050   -40.9260 hc         1 XQ4       0.049033
     84 H35         32.0250   -19.2920   -41.8510 hc         1 XQ4       0.049033
     85 H36         30.3540   -18.6980   -41.7390 hc         1 XQ4       0.049033
     86 H37         28.4350   -20.1650   -42.7230 h1         1 XQ4       0.103700
     87 H38         26.6020   -21.6960   -43.0410 h1         1 XQ4       0.099700
     88 H39         26.8760   -21.2250   -47.5370 h1         1 XQ4       0.109700
     89 H40         27.0150   -18.7530   -47.3740 hc         1 XQ4       0.053700
     90 H41         25.7240   -19.2250   -48.4950 hc         1 XQ4       0.053700
     91 H42         25.3170   -18.6640   -46.8590 hc         1 XQ4       0.053700
     92 H43         24.0220   -20.2880   -45.4640 h1         1 XQ4       0.048700
     93 H44         22.8050   -20.9020   -46.6030 h1         1 XQ4       0.048700
     94 H45         23.6120   -22.0220   -45.4630 h1         1 XQ4       0.048700
     95 H46         22.4300   -22.5060   -48.2230 hc         1 XQ4       0.061200
     96 H47         23.2830   -23.6040   -47.2430 hc         1 XQ4       0.061200
     97 H48         24.2590   -24.6890   -49.4260 h1         1 XQ4       0.065700
     98 H49         23.1870   -23.6080   -50.3270 h1         1 XQ4       0.065700
     99 H50         21.5350   -26.8580   -48.1770 h1         1 XQ4       0.028367
    100 H51         23.2970   -26.7370   -48.3830 h1         1 XQ4       0.028367
    101 H52         22.4690   -25.7280   -47.1770 h1         1 XQ4       0.028367
    102 O13         33.8060   -17.9580   -45.4880 o          1 XQ4      -0.542000
@<TRIPOS>BOND
     1     1    27 1   
     2     1    28 1   
     3     1    29 1   
     4     2    12 1   
     5     2    15 1   
     6     2    17 1   
     7     2    51 1   
     8     3    49 1   
     9     3    50 1   
    10     3    52 1   
    11     4     5 1   
    12     4    17 2   
    13     4    53 1   
    14     5     6 2   
    15     5    54 1   
    16     6     8 1   
    17     6    18 1   
    18     7    11 1   
    19     7    12 1   
    20     7    55 1   
    21     8    19 1   
    22     8    56 1   
    23     8    57 1   
    24     9    10 1   
    25     9    36 1   
    26     9    37 1   
    27     9    38 1   
    28    10    58 1   
    29    10    59 1   
    30    10    60 1   
    31    11    32 1   
    32    11   102 2   
    33    12    13 1   
    34    12    14 1   
    35    13    33 1   
    36    13    61 1   
    37    13    62 1   
    38    14    63 1   
    39    15    16 1   
    40    16    64 1   
    41    16    65 1   
    42    16    66 1   
    43    17    67 1   
    44    18    68 1   
    45    18    69 1   
    46    18    70 1   
    47    19    20 ar  
    48    19    21 ar  
    49    20    27 ar  
    50    20    71 1   
    51    21    22 ar  
    52    21    72 1   
    53    22    23 1   
    54    22    25 ar  
    55    23    24 1   
    56    24    73 1   
    57    24    74 1   
    58    24    75 1   
    59    25    26 1   
    60    25    27 ar  
    61    28    76 1   
    62    28    77 1   
    63    28    78 1   
    64    29    30 2   
    65    29    31 1   
    66    31    38 1   
    67    31    79 1   
    68    31    80 1   
    69    32    33 1   
    70    33    34 1   
    71    33    81 1   
    72    34    35 1   
    73    34    36 1   
    74    34    82 1   
    75    35    83 1   
    76    35    84 1   
    77    35    85 1   
    78    36    37 1   
    79    36    86 1   
    80    38    39 1   
    81    38    87 1   
    82    39    40 1   
    83    40    41 2   
    84    40    42 1   
    85    42    43 1   
    86    42    44 1   
    87    42    88 1   
    88    43    89 1   
    89    43    90 1   
    90    43    91 1   
    91    44    45 1   
    92    44    46 1   
    93    45    92 1   
    94    45    93 1   
    95    45    94 1   
    96    46    47 2   
    97    46    48 1   
    98    48    49 1   
    99    48    95 1   
   100    48    96 1   
   101    49    97 1   
   102    49    98 1   
   103    50    99 1   
   104    50   100 1   
   105    50   101 1   
@<TRIPOS>SUBSTRUCTURE
     1 XQ4         1 TEMP              0 ****  ****    0 ROOT
