@<TRIPOS>MOLECULE
XQ4
  102   105     1     0     0
SMALL
bcc


@<TRIPOS>ATOM
      1 N1          24.5700   -24.8740   -44.3800 n          1 XQ4      -0.399000
      2 C2          30.7340   -20.4430   -48.2800 c3         1 XQ4       0.186300
      3 N3          22.4800   -24.4770   -49.8890 n7         1 XQ4      -0.809200
      4 C4          29.6780   -22.6990   -48.2810 ce         1 XQ4      -0.120000
      5 C5          28.5710   -23.6180   -48.4700 ce         1 XQ4      -0.133000
      6 C6          28.5470   -24.9210   -48.1470 c2         1 XQ4      -0.105400
      7 N6          31.6250   -18.6830   -46.8580 ns         1 XQ4      -0.642900
      8 C8          27.3000   -25.7320   -48.4080 c3         1 XQ4       0.001100
      9 C41         28.6310   -22.3060   -43.5410 cx         1 XQ4       0.051800
     10 C42         29.4230   -23.2930   -44.3590 c3         1 XQ4      -0.083100
     11 C49         32.3510   -18.4930   -45.7330 c          1 XQ4       0.857600
     12 C48         30.4880   -19.5570   -47.0400 c6         1 XQ4       0.348200
     13 C47         30.3670   -20.4370   -45.8050 c6         1 XQ4      -0.164400
     14 O12         29.3250   -18.8200   -47.2970 oh         1 XQ4      -0.581800
     15 O1          30.9600   -19.5800   -49.3670 os         1 XQ4      -0.394600
     16 C1          31.5420   -20.2160   -50.4800 c3         1 XQ4       0.120700
     17 C3          29.5980   -21.3880   -48.5330 c2         1 XQ4      -0.193200
     18 C7          29.6770   -25.6690   -47.5130 c3         1 XQ4      -0.059900
     19 C9          26.6770   -26.2160   -47.1240 ca         1 XQ4      -0.055300
     20 C10         25.8780   -25.3630   -46.3720 ca         1 XQ4      -0.126000
     21 C53         26.9350   -27.4920   -46.6410 ca         1 XQ4      -0.138000
     22 C51         26.4400   -27.9080   -45.4120 ca         1 XQ4       0.115100
     23 O15         26.7420   -29.1350   -44.9280 os         1 XQ4      -0.325900
     24 C52         25.8530   -30.1670   -45.3440 c3         1 XQ4       0.125700
     25 C50         25.6580   -27.0330   -44.6630 ca         1 XQ4      -0.007600
     26 CL1         25.0900   -27.5190   -43.1120 cl         1 XQ4      -0.072400
     27 C11         25.3760   -25.7550   -45.1410 ca         1 XQ4       0.048600
     28 C12         23.1320   -25.0260   -44.5350 c3         1 XQ4       0.091300
     29 C13         25.0840   -23.8510   -43.6480 c          1 XQ4       0.692100
     30 O2          24.3730   -23.0260   -43.0990 o          1 XQ4      -0.597100
     31 C14         26.5900   -23.7950   -43.4960 c3         1 XQ4      -0.160400
     32 O14         31.9060   -19.0460   -44.6020 os         1 XQ4      -0.417900
     33 C46         30.6110   -19.6510   -44.5370 c6         1 XQ4       0.170100
     34 C44         30.5890   -20.5250   -43.2810 c3         1 XQ4      -0.048700
     35 C45         31.0320   -19.7590   -42.0340 c3         1 XQ4      -0.083100
     36 C43         29.1860   -21.0360   -43.0510 cx         1 XQ4       0.072100
     37 O11         29.0390   -22.1550   -42.1900 op         1 XQ4      -0.376600
     38 C15         27.1140   -22.3820   -43.6790 c3         1 XQ4       0.171100
     39 O3          26.7250   -21.9630   -45.0010 os         1 XQ4      -0.417900
     40 C16         26.4080   -20.6870   -45.2100 c          1 XQ4       0.635100
     41 O4          26.4790   -19.8240   -44.3770 o          1 XQ4      -0.529000
     42 C17         25.9630   -20.4430   -46.6480 c3         1 XQ4       0.054700
     43 C18         25.7080   -18.9700   -46.9210 c3         1 XQ4      -0.099100
     44 N2          24.8070   -21.2680   -46.9570 n          1 XQ4      -0.471800
     45 C19         23.6510   -21.1860   -46.0780 c3         1 XQ4       0.078300
     46 C20         24.7430   -21.8970   -48.1570 c          1 XQ4       0.676100
     47 O5          25.6400   -21.8140   -48.9870 o          1 XQ4      -0.610100
     48 C21         23.5010   -22.7180   -48.4170 c3         1 XQ4      -0.201400
     49 C22         23.6280   -23.6290   -49.6400 c3         1 XQ4       0.170800
     50 C23         22.2410   -25.4860   -48.8760 c3         1 XQ4       0.145100
     51 H1          31.6400   -21.0300   -48.0660 h1         1 XQ4       0.042700
     52 H2          21.6520   -23.9090   -50.0100 hn         1 XQ4       0.355800
     53 H4          30.6160   -23.0900   -47.8990 ha         1 XQ4       0.113000
     54 H5          27.6750   -23.1870   -48.9050 ha         1 XQ4       0.147000
     55 H6          31.9900   -18.2310   -47.6840 hn         1 XQ4       0.347500
     56 H7          26.5780   -25.1290   -48.9620 hc         1 XQ4       0.062200
     57 H8          27.5540   -26.5920   -49.0350 hc         1 XQ4       0.062200
     58 H9          30.4880   -23.0740   -44.3470 hc         1 XQ4       0.053700
     59 H10         29.2980   -24.3040   -43.9690 hc         1 XQ4       0.053700
     60 H11         29.0960   -23.2950   -45.3990 hc         1 XQ4       0.053700
     61 H12         29.3760   -20.8850   -45.7980 hc         1 XQ4       0.078700
     62 H13         31.0890   -21.2560   -45.8550 hc         1 XQ4       0.078700
     63 H14         29.1480   -18.2210   -46.5620 ho         1 XQ4       0.413000
     64 H15         31.7520   -19.4500   -51.2240 h1         1 XQ4       0.034700
     65 H16         32.4810   -20.7160   -50.2180 h1         1 XQ4       0.034700
     66 H17         30.8770   -20.9620   -50.9280 h1         1 XQ4       0.034700
     67 H18         28.6750   -20.9630   -48.9180 ha         1 XQ4       0.157000
     68 H19         29.4130   -25.9860   -46.5010 hc         1 XQ4       0.043033
     69 H20         29.8980   -26.5810   -48.0740 hc         1 XQ4       0.043033
     70 H21         30.5940   -25.0900   -47.4440 hc         1 XQ4       0.043033
     71 H22         25.6620   -24.3630   -46.7290 ha         1 XQ4       0.155000
     72 H23         27.5540   -28.1750   -47.2110 ha         1 XQ4       0.149000
     73 H24         26.1990   -31.0900   -44.8840 h1         1 XQ4       0.041033
     74 H25         24.8280   -29.9720   -45.0170 h1         1 XQ4       0.041033
     75 H26         25.8610   -30.2850   -46.4300 h1         1 XQ4       0.041033
     76 H27         22.6130   -24.5450   -43.7120 h1         1 XQ4       0.046033
     77 H28         22.7910   -24.5850   -45.4730 h1         1 XQ4       0.046033
     78 H29         22.8710   -26.0830   -44.5370 h1         1 XQ4       0.046033
     79 H30         27.1030   -24.4860   -44.1600 hc         1 XQ4       0.087200
     80 H31         26.8250   -24.1160   -42.4770 hc         1 XQ4       0.087200
     81 H32         29.8640   -18.8530   -44.4210 h1         1 XQ4       0.057700
     82 H33         31.2740   -21.3640   -43.4380 hc         1 XQ4       0.071700
     83 H34         30.9650   -20.3990   -41.1550 hc         1 XQ4       0.049033
     84 H35         32.0630   -19.4200   -42.1110 hc         1 XQ4       0.049033
     85 H36         30.3990   -18.8870   -41.8630 hc         1 XQ4       0.049033
     86 H37         28.4710   -20.2360   -42.8530 h1         1 XQ4       0.103700
     87 H38         26.6560   -21.7260   -42.9370 h1         1 XQ4       0.099700
     88 H39         26.7830   -20.7810   -47.2850 h1         1 XQ4       0.109700
     89 H40         26.5930   -18.3710   -46.7180 hc         1 XQ4       0.053700
     90 H41         25.4530   -18.8420   -47.9720 hc         1 XQ4       0.053700
     91 H42         24.8880   -18.5760   -46.3210 hc         1 XQ4       0.053700
     92 H43         23.8340   -20.4480   -45.3010 h1         1 XQ4       0.048700
     93 H44         22.7580   -20.8630   -46.6130 h1         1 XQ4       0.048700
     94 H45         23.4390   -22.1360   -45.5900 h1         1 XQ4       0.048700
     95 H46         22.6520   -22.0370   -48.5560 hc         1 XQ4       0.061200
     96 H47         23.2610   -23.3060   -47.5290 hc         1 XQ4       0.061200
     97 H48         24.5030   -24.2750   -49.5260 h1         1 XQ4       0.065700
     98 H49         23.8050   -23.0220   -50.5300 h1         1 XQ4       0.065700
     99 H50         21.3990   -26.1110   -49.1760 h1         1 XQ4       0.028367
    100 H51         23.1160   -26.1340   -48.7960 h1         1 XQ4       0.028367
    101 H52         22.0230   -25.1060   -47.8690 h1         1 XQ4       0.028367
    102 O13         33.3790   -17.8520   -45.7030 o          1 XQ4      -0.617500
@<TRIPOS>BOND
     1     1    27 1   
     2     1    28 1   
     3     1    29 1   
     4     2    12 1   
     5     2    15 1   
     6     2    17 1   
     7     2    51 1   
     8     3    49 1   
     9     3    50 1   
    10     3    52 1   
    11     4     5 1   
    12     4    17 2   
    13     4    53 1   
    14     5     6 2   
    15     5    54 1   
    16     6     8 1   
    17     6    18 1   
    18     7    11 1   
    19     7    12 1   
    20     7    55 1   
    21     8    19 1   
    22     8    56 1   
    23     8    57 1   
    24     9    10 1   
    25     9    36 1   
    26     9    37 1   
    27     9    38 1   
    28    10    58 1   
    29    10    59 1   
    30    10    60 1   
    31    11    32 1   
    32    11   102 2   
    33    12    13 1   
    34    12    14 1   
    35    13    33 1   
    36    13    61 1   
    37    13    62 1   
    38    14    63 1   
    39    15    16 1   
    40    16    64 1   
    41    16    65 1   
    42    16    66 1   
    43    17    67 1   
    44    18    68 1   
    45    18    69 1   
    46    18    70 1   
    47    19    20 ar  
    48    19    21 ar  
    49    20    27 ar  
    50    20    71 1   
    51    21    22 ar  
    52    21    72 1   
    53    22    23 1   
    54    22    25 ar  
    55    23    24 1   
    56    24    73 1   
    57    24    74 1   
    58    24    75 1   
    59    25    26 1   
    60    25    27 ar  
    61    28    76 1   
    62    28    77 1   
    63    28    78 1   
    64    29    30 2   
    65    29    31 1   
    66    31    38 1   
    67    31    79 1   
    68    31    80 1   
    69    32    33 1   
    70    33    34 1   
    71    33    81 1   
    72    34    35 1   
    73    34    36 1   
    74    34    82 1   
    75    35    83 1   
    76    35    84 1   
    77    35    85 1   
    78    36    37 1   
    79    36    86 1   
    80    38    39 1   
    81    38    87 1   
    82    39    40 1   
    83    40    41 2   
    84    40    42 1   
    85    42    43 1   
    86    42    44 1   
    87    42    88 1   
    88    43    89 1   
    89    43    90 1   
    90    43    91 1   
    91    44    45 1   
    92    44    46 1   
    93    45    92 1   
    94    45    93 1   
    95    45    94 1   
    96    46    47 2   
    97    46    48 1   
    98    48    49 1   
    99    48    95 1   
   100    48    96 1   
   101    49    97 1   
   102    49    98 1   
   103    50    99 1   
   104    50   100 1   
   105    50   101 1   
@<TRIPOS>SUBSTRUCTURE
     1 XQ4         1 TEMP              0 ****  ****    0 ROOT
