@<TRIPOS>MOLECULE
XQ6
   99   106     1     0     0
SMALL
abcg2


@<TRIPOS>ATOM
      1 C4          11.1710   -31.9220   -51.6010 ca         1 XQ6       0.654900
      2 C14         14.9700   -31.3610   -47.4170 ca         1 XQ6      -0.071000
      3 C6          12.1530   -30.7650   -49.8890 cp         1 XQ6       0.516500
      4 C7          11.0260   -29.9860   -49.6590 ca         1 XQ6      -0.296300
      5 C8          10.9810   -28.9450   -48.5890 c3         1 XQ6       0.373300
      6 C12         13.4320   -30.6200   -49.1390 cp         1 XQ6      -0.157500
      7 C13         13.7540   -31.4340   -48.0370 ca         1 XQ6       0.136000
      8 C3          10.0000   -31.1520   -51.4770 ca         1 XQ6      -0.251000
      9 C15         15.9370   -30.4500   -47.8790 ca         1 XQ6      -0.169000
     10 C16         15.6810   -29.6740   -49.0280 ca         1 XQ6       0.049000
     11 C17         14.3930   -29.7690   -49.5980 ca         1 XQ6       0.213000
     12 C2           9.9130   -30.1780   -50.5130 ca         1 XQ6       0.059700
     13 C20         17.8020   -28.9690   -49.1110 ca         1 XQ6       0.406300
     14 C22         17.2670   -30.3060   -47.3360 ca         1 XQ6       0.435900
     15 C24         19.0760   -31.0860   -45.9200 c6         1 XQ6       0.192800
     16 C25         19.5960   -30.0540   -44.9350 c6         1 XQ6       0.079000
     17 C27         17.3950   -29.8110   -44.0160 c6         1 XQ6       0.068000
     18 C28         16.8270   -30.8750   -44.9690 c6         1 XQ6       0.209500
     19 C30         16.7210   -32.2390   -44.3030 c3         1 XQ6      -0.096100
     20 C31         19.1950   -30.4160   -42.4800 c          1 XQ6       0.615300
     21 C33         20.5500   -31.0040   -42.3350 ce         1 XQ6      -0.304200
     22 C34         21.1090   -31.1340   -41.1270 cf         1 XQ6      -0.076200
     23 C35         22.3780   -31.8180   -40.8660 ca         1 XQ6      -0.076800
     24 C36         22.7430   -32.9140   -41.6480 ca         1 XQ6      -0.095000
     25 C37         23.9370   -33.5780   -41.4210 ca         1 XQ6      -0.113000
     26 C38         24.7770   -33.1440   -40.4100 ca         1 XQ6      -0.099000
     27 C39         24.4350   -32.0570   -39.6090 ca         1 XQ6      -0.065300
     28 C40         23.2220   -31.3980   -39.8220 ca         1 XQ6      -0.047300
     29 C41         22.8560   -30.1980   -38.9850 c6         1 XQ6       0.199100
     30 C43         25.0750   -30.1840   -38.0840 c6         1 XQ6       0.158800
     31 C44         25.3850   -31.5990   -38.5330 c6         1 XQ6      -0.030100
     32 C46         20.0560   -28.2190   -49.2620 c3         1 XQ6       0.201600
     33 C47         20.8950   -27.4210   -50.2490 c5         1 XQ6       0.174200
     34 C48         22.3700   -27.4980   -49.8240 c5         1 XQ6      -0.090400
     35 C49         22.9240   -28.6490   -50.6550 c5         1 XQ6      -0.088400
     36 C50         22.2070   -28.4380   -51.9770 c5         1 XQ6       0.160800
     37 C52         20.2010   -27.1290   -52.5110 c5         1 XQ6       0.195000
     38 C53         20.4430   -25.7690   -51.9170 c2         1 XQ6      -0.146400
     39 C54         20.7300   -24.6510   -52.5710 c2         1 XQ6      -0.312000
     40 C55         20.3860   -25.9730   -50.4330 c5         1 XQ6      -0.054200
     41 F10          9.8320   -28.9770   -47.8970 f          1 XQ6      -0.115667
     42 F11         11.9550   -29.0700   -47.6820 f          1 XQ6      -0.115667
     43 F18         14.1290   -29.0180   -50.6700 f          1 XQ6      -0.141000
     44 F9          11.0850   -27.7000   -49.0890 f          1 XQ6      -0.115667
     45 N19         16.6060   -28.9050   -49.6330 nb         1 XQ6      -0.202000
     46 N21         18.1680   -29.6130   -48.0020 nb         1 XQ6      -0.350000
     47 N23         17.6530   -30.9140   -46.1860 nh         1 XQ6      -0.777300
     48 N26         18.7880   -30.0780   -43.7300 n          1 XQ6      -0.413800
     49 N42         23.6590   -30.1120   -37.7840 n7         1 XQ6      -0.858400
     50 N5          12.2270   -31.7050   -50.8200 nb         1 XQ6      -0.750000
     51 N51         20.8530   -28.0520   -51.5910 n3         1 XQ6      -0.704600
     52 N57         11.2820   -32.8780   -52.5400 nv         1 XQ6      -1.072900
     53 O32         18.4640   -30.2770   -41.5050 o          1 XQ6      -0.605100
     54 O45         18.7270   -28.2840   -49.7670 os         1 XQ6      -0.423300
     55 CL56        12.5670   -32.5560   -47.4750 cl         1 XQ6      -0.183000
     56 H62         15.1810   -32.0380   -46.6030 ha         1 XQ6       0.138000
     57 H61          9.1700   -31.3280   -52.1500 ha         1 XQ6       0.124000
     58 H59          8.0440   -29.6840   -49.5660 hc         1 XQ6       0.057700
     59 H58          8.8230   -28.3110   -50.3420 hc         1 XQ6       0.057700
     60 H60          8.0390   -29.5440   -51.3160 hc         1 XQ6       0.057700
     61 H64         19.2270   -32.0880   -45.5110 h1         1 XQ6       0.069200
     62 H63         19.6310   -31.0300   -46.8520 h1         1 XQ6       0.069200
     63 H66         20.6460   -30.2330   -44.7240 h1         1 XQ6       0.062200
     64 H65         19.5290   -29.0540   -45.3750 h1         1 XQ6       0.062200
     65 H67         17.3000   -28.8240   -44.4790 h1         1 XQ6       0.072700
     66 H68         16.8170   -29.8040   -43.0960 h1         1 XQ6       0.072700
     67 H29         15.8300   -30.5290   -45.2370 h1         1 XQ6       0.074700
     68 H71         16.0560   -32.1760   -43.4420 hc         1 XQ6       0.049033
     69 H69         16.3160   -32.9840   -44.9870 hc         1 XQ6       0.049033
     70 H70         17.6840   -32.6060   -43.9490 hc         1 XQ6       0.049033
     71 H72         21.0690   -31.3790   -43.2070 ha         1 XQ6       0.182000
     72 H73         20.5820   -30.7140   -40.2760 ha         1 XQ6       0.200000
     73 H74         22.0760   -33.2660   -42.4250 ha         1 XQ6       0.113000
     74 H75         24.2090   -34.4300   -42.0290 ha         1 XQ6       0.116000
     75 H76         25.7190   -33.6510   -40.2360 ha         1 XQ6       0.113000
     76 H78         22.9420   -29.3020   -39.6210 h1         1 XQ6       0.044700
     77 H77         21.8060   -30.2550   -38.6850 h1         1 XQ6       0.044700
     78 H80         25.6440   -29.9410   -37.1860 h1         1 XQ6       0.033700
     79 H81         25.3830   -29.4700   -38.8650 h1         1 XQ6       0.033700
     80 H83         25.3130   -32.2730   -37.6730 hc         1 XQ6       0.056200
     81 H82         26.4130   -31.6680   -38.8960 hc         1 XQ6       0.056200
     82 H84         20.4680   -29.2260   -49.1460 h1         1 XQ6       0.047200
     83 H85         20.0650   -27.7370   -48.2800 h1         1 XQ6       0.047200
     84 H86         22.4930   -27.6290   -48.7470 hc         1 XQ6       0.051200
     85 H87         22.8790   -26.5700   -50.0990 hc         1 XQ6       0.051200
     86 H88         22.6550   -29.6130   -50.2170 hc         1 XQ6       0.051700
     87 H89         24.0080   -28.6210   -50.7580 hc         1 XQ6       0.051700
     88 H90         22.1970   -29.3340   -52.6040 h1         1 XQ6       0.041200
     89 H91         22.7160   -27.6470   -52.5480 h1         1 XQ6       0.041200
     90 H92         19.1240   -27.3300   -52.5590 h1         1 XQ6       0.067200
     91 H93         20.5910   -27.2350   -53.5250 h1         1 XQ6       0.067200
     92 H94         20.9300   -23.7220   -52.0500 ha         1 XQ6       0.165000
     93 H95         20.7660   -24.6210   -53.6530 ha         1 XQ6       0.165000
     94 H96         20.9820   -25.2500   -49.8740 hc         1 XQ6       0.064200
     95 H97         19.3510   -25.8660   -50.0920 hc         1 XQ6       0.064200
     96 H79         23.4440   -29.2470   -37.3090 hn         1 XQ6       0.416000
     97 H98         12.0750   -33.4950   -52.5160 hn         1 XQ6       0.494500
     98 H99         10.4730   -33.1890   -53.0480 hn         1 XQ6       0.494500
     99 C1           8.6420   -29.3810   -50.4250 c3         1 XQ6      -0.065800
@<TRIPOS>BOND
     1     1     8 ar  
     2     1    50 ar  
     3     1    52 1   
     4     2     7 ar  
     5     2     9 ar  
     6     2    56 1   
     7     3     4 ar  
     8     3     6 1   
     9     3    50 ar  
    10     4     5 1   
    11     4    12 ar  
    12     5    41 1   
    13     5    42 1   
    14     5    44 1   
    15     6     7 ar  
    16     6    11 ar  
    17     7    55 1   
    18     8    12 ar  
    19     8    57 1   
    20     9    10 ar  
    21     9    14 ar  
    22    10    11 ar  
    23    10    45 ar  
    24    11    43 1   
    25    12    99 1   
    26    13    45 ar  
    27    13    46 ar  
    28    13    54 1   
    29    14    46 ar  
    30    14    47 1   
    31    15    16 1   
    32    15    47 1   
    33    15    61 1   
    34    15    62 1   
    35    16    48 1   
    36    16    63 1   
    37    16    64 1   
    38    17    18 1   
    39    17    48 1   
    40    17    65 1   
    41    17    66 1   
    42    18    19 1   
    43    18    47 1   
    44    18    67 1   
    45    19    68 1   
    46    19    69 1   
    47    19    70 1   
    48    20    21 1   
    49    20    48 1   
    50    20    53 2   
    51    21    22 2   
    52    21    71 1   
    53    22    23 1   
    54    22    72 1   
    55    23    24 ar  
    56    23    28 ar  
    57    24    25 ar  
    58    24    73 1   
    59    25    26 ar  
    60    25    74 1   
    61    26    27 ar  
    62    26    75 1   
    63    27    28 ar  
    64    27    31 1   
    65    28    29 1   
    66    29    49 1   
    67    29    76 1   
    68    29    77 1   
    69    30    31 1   
    70    30    49 1   
    71    30    78 1   
    72    30    79 1   
    73    31    80 1   
    74    31    81 1   
    75    32    33 1   
    76    32    54 1   
    77    32    82 1   
    78    32    83 1   
    79    33    34 1   
    80    33    40 1   
    81    33    51 1   
    82    34    35 1   
    83    34    84 1   
    84    34    85 1   
    85    35    36 1   
    86    35    86 1   
    87    35    87 1   
    88    36    51 1   
    89    36    88 1   
    90    36    89 1   
    91    37    38 1   
    92    37    51 1   
    93    37    90 1   
    94    37    91 1   
    95    38    39 2   
    96    38    40 1   
    97    39    92 1   
    98    39    93 1   
    99    40    94 1   
   100    40    95 1   
   101    49    96 1   
   102    52    97 1   
   103    52    98 1   
   104    58    99 1   
   105    59    99 1   
   106    60    99 1   
@<TRIPOS>SUBSTRUCTURE
     1 XQ6         1 TEMP              0 ****  ****    0 ROOT
