@<TRIPOS>MOLECULE
XQ6
   99   106     1     0     0
SMALL
No Charge or Current Charge


@<TRIPOS>ATOM
      1 C4          10.8760   -30.9350   -52.4410 ca         1 XQ6       0.654900
      2 C14         14.1790   -31.5710   -47.7500 ca         1 XQ6      -0.071000
      3 C6          11.9360   -30.2670   -50.5380 cp         1 XQ6       0.516500
      4 C7          10.8780   -29.3640   -50.2040 ca         1 XQ6      -0.296300
      5 C8          10.9180   -28.4840   -48.9370 c3         1 XQ6       0.373300
      6 C12         13.1270   -30.5130   -49.6880 cp         1 XQ6      -0.157500
      7 C13         13.0510   -31.3520   -48.5530 ca         1 XQ6       0.136000
      8 C3           9.7700   -30.1330   -52.2120 ca         1 XQ6      -0.251000
      9 C15         15.4090   -30.9530   -48.0620 ca         1 XQ6      -0.169000
     10 C16         15.5130   -30.1200   -49.2000 ca         1 XQ6       0.049000
     11 C17         14.3660   -29.9090   -49.9990 ca         1 XQ6       0.213000
     12 C2           9.7500   -29.3230   -51.0700 ca         1 XQ6       0.059700
     13 C20         17.7540   -29.7770   -48.7070 ca         1 XQ6       0.406300
     14 C22         16.5710   -31.1400   -47.2810 ca         1 XQ6       0.435900
     15 C24         17.7580   -32.7650   -45.7770 c6         1 XQ6       0.192800
     16 C25         18.8440   -32.0200   -44.9480 c6         1 XQ6       0.079000
     17 C27         17.0030   -30.4790   -44.0850 c6         1 XQ6       0.068000
     18 C28         15.9680   -31.3260   -44.8790 c6         1 XQ6       0.209500
     19 C30         15.3100   -32.4210   -43.9950 c3         1 XQ6      -0.096100
     20 C31         19.2520   -30.4680   -42.9630 c          1 XQ6       0.615300
     21 C33         20.7020   -30.8470   -42.9630 ce         1 XQ6      -0.304200
     22 C34         21.6360   -30.3170   -42.1170 cf         1 XQ6      -0.076200
     23 C35         23.0930   -30.5900   -42.0570 ca         1 XQ6      -0.076800
     24 C36         23.7430   -31.1290   -43.1890 ca         1 XQ6      -0.095000
     25 C37         25.1230   -31.3760   -43.1780 ca         1 XQ6      -0.113000
     26 C38         25.8780   -31.0850   -42.0350 ca         1 XQ6      -0.099000
     27 C39         25.2570   -30.5450   -40.8960 ca         1 XQ6      -0.065300
     28 C40         23.8580   -30.3040   -40.8920 ca         1 XQ6      -0.047300
     29 C41         23.1870   -29.7230   -39.6260 c6         1 XQ6       0.199100
     30 C43         25.3930   -29.3670   -38.6170 c6         1 XQ6       0.158800
     31 C44         26.1120   -30.2530   -39.6570 c6         1 XQ6      -0.030100
     32 C46         20.1190   -29.2950   -48.2350 c3         1 XQ6       0.201600
     33 C47         21.3160   -28.4730   -48.8290 c5         1 XQ6       0.174200
     34 C48         22.5970   -28.5200   -47.9110 c5         1 XQ6      -0.090400
     35 C49         23.7830   -28.8120   -48.8870 c5         1 XQ6      -0.088400
     36 C50         23.2230   -28.3790   -50.2590 c5         1 XQ6       0.160800
     37 C52         20.9830   -28.3010   -51.2000 c5         1 XQ6       0.195000
     38 C53         20.5960   -26.9630   -50.5720 c2         1 XQ6      -0.146400
     39 C54         19.9910   -25.9500   -51.2110 c2         1 XQ6      -0.312000
     40 C55         20.9660   -26.9660   -49.1020 c5         1 XQ6      -0.054200
     41 F10         10.0990   -28.9720   -47.9790 f          1 XQ6      -0.115667
     42 F11         12.1400   -28.3690   -48.3730 f          1 XQ6      -0.115667
     43 F18         14.4530   -29.0940   -51.0780 f          1 XQ6      -0.141000
     44 F9          10.5250   -27.2140   -49.1830 f          1 XQ6      -0.115667
     45 N19         16.6940   -29.5380   -49.5050 nb         1 XQ6      -0.202000
     46 N21         17.7320   -30.5560   -47.6100 nb         1 XQ6      -0.350000
     47 N23         16.5810   -31.9110   -46.0980 nh         1 XQ6      -0.777300
     48 N26         18.3630   -31.0810   -43.8790 n          1 XQ6      -0.413800
     49 N42         24.0160   -29.8480   -38.4020 n7         1 XQ6      -0.858400
     50 N5          11.9220   -31.0220   -51.6520 nb         1 XQ6      -0.750000
     51 N51         21.8460   -28.9310   -50.1530 n3         1 XQ6      -0.704600
     52 N57         10.9980   -31.7460   -53.4890 nv         1 XQ6      -1.072900
     53 O32         18.8410   -29.6220   -42.1790 o          1 XQ6      -0.605100
     54 O45         18.9330   -29.1570   -49.0520 os         1 XQ6      -0.423300
     55 Cl56        11.5420   -32.1480   -48.1120 cl         1 XQ6      -0.183000
     56 H62         14.0910   -32.2300   -46.8910 ha         1 XQ6       0.138000
     57 H61          8.9410   -30.1370   -52.9120 ha         1 XQ6       0.124000
     58 H59          8.1770   -28.5290   -49.7750 hc         1 XQ6       0.057700
     59 H58          8.7070   -27.4110   -51.0510 hc         1 XQ6       0.057700
     60 H60          7.6680   -28.7820   -51.4390 hc         1 XQ6       0.057700
     61 H64         17.4310   -33.6520   -45.2160 h1         1 XQ6       0.069200
     62 H63         18.2150   -33.1540   -46.6980 h1         1 XQ6       0.069200
     63 H66         19.4800   -32.7930   -44.4970 h1         1 XQ6       0.062200
     64 H65         19.4740   -31.4460   -45.6420 h1         1 XQ6       0.062200
     65 H67         17.1410   -29.5320   -44.6250 h1         1 XQ6       0.072700
     66 H68         16.5620   -30.2190   -43.1120 h1         1 XQ6       0.072700
     67 H29         15.1510   -30.6500   -45.1750 h1         1 XQ6       0.074700
     68 H71         14.7250   -31.9650   -43.1880 hc         1 XQ6       0.049033
     69 H69         14.6280   -33.0480   -44.5810 hc         1 XQ6       0.049033
     70 H70         16.0530   -33.0750   -43.5260 hc         1 XQ6       0.049033
     71 H72         21.0260   -31.5900   -43.6810 ha         1 XQ6       0.182000
     72 H73         21.2790   -29.5690   -41.4060 ha         1 XQ6       0.200000
     73 H74         23.1880   -31.3420   -44.0980 ha         1 XQ6       0.113000
     74 H75         25.6090   -31.7880   -44.0600 ha         1 XQ6       0.116000
     75 H76         26.9480   -31.2780   -42.0340 ha         1 XQ6       0.113000
     76 H78         22.9690   -28.6600   -39.8070 h1         1 XQ6       0.044700
     77 H77         22.2290   -30.2330   -39.4490 h1         1 XQ6       0.044700
     78 H80         25.9500   -29.3870   -37.6680 h1         1 XQ6       0.033700
     79 H81         25.3680   -28.3260   -38.9710 h1         1 XQ6       0.033700
     80 H83         26.3870   -31.2060   -39.1850 hc         1 XQ6       0.056200
     81 H82         27.0550   -29.7730   -39.9510 hc         1 XQ6       0.056200
     82 H84         20.4190   -30.3500   -48.1660 h1         1 XQ6       0.047200
     83 H85         19.9220   -28.9330   -47.2180 h1         1 XQ6       0.047200
     84 H86         22.5270   -29.3120   -47.1570 hc         1 XQ6       0.051200
     85 H87         22.7490   -27.5900   -47.3510 hc         1 XQ6       0.051200
     86 H88         24.0320   -29.8790   -48.8910 hc         1 XQ6       0.051700
     87 H89         24.6950   -28.2670   -48.6190 hc         1 XQ6       0.051700
     88 H90         23.7860   -28.8230   -51.0920 h1         1 XQ6       0.041200
     89 H91         23.2540   -27.2870   -50.3770 h1         1 XQ6       0.041200
     90 H92         20.0880   -28.9080   -51.3950 h1         1 XQ6       0.067200
     91 H93         21.5080   -28.1800   -52.1590 h1         1 XQ6       0.067200
     92 H94         19.7290   -25.0250   -50.6960 ha         1 XQ6       0.165000
     93 H95         19.7360   -26.0120   -52.2690 ha         1 XQ6       0.165000
     94 H96         21.8070   -26.2850   -48.9310 hc         1 XQ6       0.064200
     95 H97         20.1420   -26.6080   -48.4730 hc         1 XQ6       0.064200
     96 H79         23.5770   -29.2970   -37.6530 hn         1 XQ6       0.416000
     97 H98         11.7280   -32.4390   -53.3850 hn         1 XQ6       0.494500
     98 H99         10.1420   -32.0630   -53.9300 hn         1 XQ6       0.494500
     99 C1           8.5120   -28.4640   -50.8170 c3         1 XQ6      -0.065800
@<TRIPOS>BOND
     1     1     8 ar  
     2     1    50 ar  
     3     1    52 1   
     4     2     7 ar  
     5     2     9 ar  
     6     2    56 1   
     7     3     4 ar  
     8     3     6 1   
     9     3    50 ar  
    10     4     5 1   
    11     4    12 ar  
    12     5    41 1   
    13     5    42 1   
    14     5    44 1   
    15     6     7 ar  
    16     6    11 ar  
    17     7    55 1   
    18     8    12 ar  
    19     8    57 1   
    20     9    10 ar  
    21     9    14 ar  
    22    10    11 ar  
    23    10    45 ar  
    24    11    43 1   
    25    12    99 1   
    26    13    45 ar  
    27    13    46 ar  
    28    13    54 1   
    29    14    46 ar  
    30    14    47 1   
    31    15    16 1   
    32    15    47 1   
    33    15    61 1   
    34    15    62 1   
    35    16    48 1   
    36    16    63 1   
    37    16    64 1   
    38    17    18 1   
    39    17    48 1   
    40    17    65 1   
    41    17    66 1   
    42    18    19 1   
    43    18    47 1   
    44    18    67 1   
    45    19    68 1   
    46    19    69 1   
    47    19    70 1   
    48    20    21 1   
    49    20    48 1   
    50    20    53 2   
    51    21    22 2   
    52    21    71 1   
    53    22    23 1   
    54    22    72 1   
    55    23    24 ar  
    56    23    28 ar  
    57    24    25 ar  
    58    24    73 1   
    59    25    26 ar  
    60    25    74 1   
    61    26    27 ar  
    62    26    75 1   
    63    27    28 ar  
    64    27    31 1   
    65    28    29 1   
    66    29    49 1   
    67    29    76 1   
    68    29    77 1   
    69    30    31 1   
    70    30    49 1   
    71    30    78 1   
    72    30    79 1   
    73    31    80 1   
    74    31    81 1   
    75    32    33 1   
    76    32    54 1   
    77    32    82 1   
    78    32    83 1   
    79    33    34 1   
    80    33    40 1   
    81    33    51 1   
    82    34    35 1   
    83    34    84 1   
    84    34    85 1   
    85    35    36 1   
    86    35    86 1   
    87    35    87 1   
    88    36    51 1   
    89    36    88 1   
    90    36    89 1   
    91    37    38 1   
    92    37    51 1   
    93    37    90 1   
    94    37    91 1   
    95    38    39 2   
    96    38    40 1   
    97    39    92 1   
    98    39    93 1   
    99    40    94 1   
   100    40    95 1   
   101    49    96 1   
   102    52    97 1   
   103    52    98 1   
   104    58    99 1   
   105    59    99 1   
   106    60    99 1   
@<TRIPOS>SUBSTRUCTURE
     1 XQ6         1 TEMP              0 ****  ****    0 ROOT
