@<TRIPOS>MOLECULE
XQ7
   44    45     1     0     0
SMALL
No Charge or Current Charge


@<TRIPOS>ATOM
      1 F1         -43.2780   140.9600     6.7570 f          1 XQ7      -0.125000
      2 C12        -42.5320   139.9460     7.3800 c6         1 XQ7       0.180000
      3 F          -42.9040   139.9600     8.7370 f          1 XQ7      -0.125000
      4 C11        -42.9060   138.5800     6.7540 c6         1 XQ7      -0.126400
      5 C10        -42.0170   137.4380     7.3120 c6         1 XQ7      -0.069400
      6 C13        -41.0240   140.2720     7.2540 c6         1 XQ7      -0.126400
      7 C14        -40.1460   139.1190     7.8080 c6         1 XQ7      -0.069400
      8 C9         -40.5030   137.7590     7.1380 c6         1 XQ7      -0.062700
      9 C8         -39.5940   136.5990     7.6410 c3         1 XQ7       0.169600
     10 O1         -39.7920   136.4030     9.0540 os         1 XQ7      -0.349100
     11 C7         -39.1160   135.4350     9.7650 ca         1 XQ7       0.140100
     12 C6         -39.3840   135.3240    11.1380 ca         1 XQ7      -0.141000
     13 C5         -38.7240   134.3580    11.9140 ca         1 XQ7      -0.076000
     14 C4         -37.7920   133.4950    11.3160 ca         1 XQ7      -0.139000
     15 C15        -38.1770   134.5660     9.1660 ca         1 XQ7      -0.187000
     16 C3         -37.5110   133.5890     9.9380 ca         1 XQ7      -0.091300
     17 C2         -36.4940   132.6400     9.2990 c3         1 XQ7       0.214600
     18 O          -35.4290   133.4070     8.7250 oh         1 XQ7      -0.663000
     19 C1         -37.1350   131.7350     8.2170 c3         1 XQ7      -0.064400
     20 C          -36.2040   130.6430     7.6420 c3         1 XQ7       0.154800
     21 N          -35.8480   129.6110     8.6400 n8         1 XQ7      -1.002200
     22 H1         -42.7900   138.6350     5.6630 hc         1 XQ7       0.066200
     23 H2         -43.9650   138.3590     6.9440 hc         1 XQ7       0.066200
     24 H3         -42.2490   137.2780     8.3740 hc         1 XQ7       0.058950
     25 H4         -42.2620   136.4980     6.7980 hc         1 XQ7       0.058950
     26 H5         -40.7750   140.4460     6.1970 hc         1 XQ7       0.066200
     27 H6         -40.7960   141.2060     7.7840 hc         1 XQ7       0.066200
     28 H7         -40.2780   139.0490     8.8970 hc         1 XQ7       0.058950
     29 H8         -39.0850   139.3520     7.6410 hc         1 XQ7       0.058950
     30 H9         -40.2950   137.8450     6.0620 hc         1 XQ7       0.050700
     31 H10        -39.8470   135.6860     7.0860 h1         1 XQ7       0.037200
     32 H11        -38.5470   136.8530     7.4310 h1         1 XQ7       0.037200
     33 H12        -40.1060   135.9920    11.6010 ha         1 XQ7       0.128000
     34 H13        -38.9360   134.2770    12.9780 ha         1 XQ7       0.116000
     35 H14        -37.2880   132.7490    11.9280 ha         1 XQ7       0.118000
     36 H15        -37.9510   134.6390     8.1060 ha         1 XQ7       0.126000
     37 H16        -36.0910   131.9920    10.0890 h1         1 XQ7       0.043700
     38 H17        -35.1930   134.0880     9.3910 ho         1 XQ7       0.444000
     39 H18        -37.4850   132.3600     7.3870 hc         1 XQ7       0.055700
     40 H19        -38.0260   131.2550     8.6380 hc         1 XQ7       0.055700
     41 H20        -35.2840   131.0970     7.2500 h1         1 XQ7       0.032700
     42 H21        -36.7180   130.1450     6.8080 h1         1 XQ7       0.032700
     43 H22        -35.2350   128.9160     8.1960 hn         1 XQ7       0.391000
     44 H23        -35.2470   130.0360     9.3560 hn         1 XQ7       0.391000
@<TRIPOS>BOND
     1     1     2 1   
     2     2     3 1   
     3     2     4 1   
     4     2     6 1   
     5     4     5 1   
     6     4    22 1   
     7     4    23 1   
     8     5     8 1   
     9     5    24 1   
    10     5    25 1   
    11     6     7 1   
    12     6    26 1   
    13     6    27 1   
    14     7     8 1   
    15     7    28 1   
    16     7    29 1   
    17     8     9 1   
    18     8    30 1   
    19     9    10 1   
    20     9    31 1   
    21     9    32 1   
    22    10    11 1   
    23    11    12 ar  
    24    11    15 ar  
    25    12    13 ar  
    26    12    33 1   
    27    13    14 ar  
    28    13    34 1   
    29    14    16 ar  
    30    14    35 1   
    31    15    16 ar  
    32    15    36 1   
    33    16    17 1   
    34    17    18 1   
    35    17    19 1   
    36    17    37 1   
    37    18    38 1   
    38    19    20 1   
    39    19    39 1   
    40    19    40 1   
    41    20    21 1   
    42    20    41 1   
    43    20    42 1   
    44    21    43 1   
    45    21    44 1   
@<TRIPOS>SUBSTRUCTURE
     1 XQ7         1 TEMP              0 ****  ****    0 ROOT
