@<TRIPOS>MOLECULE
XQ7
   44    45     1     0     0
SMALL
bcc


@<TRIPOS>ATOM
      1 F1         -43.1150   140.9830     6.7020 f          1 XQ7      -0.246300
      2 C12        -42.4440   139.9640     7.3340 c6         1 XQ7       0.422600
      3 F          -42.9500   139.9500     8.6130 f          1 XQ7      -0.246300
      4 C11        -42.7570   138.6490     6.6610 c6         1 XQ7      -0.126400
      5 C10        -41.9540   137.5070     7.2820 c6         1 XQ7      -0.069400
      6 C13        -40.9670   140.2800     7.3860 c6         1 XQ7      -0.126400
      7 C14        -40.1750   139.1250     7.9970 c6         1 XQ7      -0.069400
      8 C9         -40.4580   137.8200     7.2550 c6         1 XQ7      -0.062700
      9 C8         -39.5970   136.6640     7.7290 c3         1 XQ7       0.146400
     10 O1         -39.8740   136.3930     9.0910 os         1 XQ7      -0.325900
     11 C7         -39.2020   135.4000     9.7090 ca         1 XQ7       0.140100
     12 C6         -39.5170   135.1840    11.0520 ca         1 XQ7      -0.159000
     13 C5         -38.8650   134.1880    11.7560 ca         1 XQ7      -0.094000
     14 C4         -37.8980   133.4010    11.1420 ca         1 XQ7      -0.157000
     15 C15        -38.2360   134.6100     9.0890 ca         1 XQ7      -0.205000
     16 C3         -37.5830   133.6090     9.8060 ca         1 XQ7      -0.091300
     17 C2         -36.5590   132.7220     9.1290 c3         1 XQ7       0.191400
     18 O          -35.8700   133.3760     8.0890 oh         1 XQ7      -0.600800
     19 C1         -37.2390   131.4900     8.5390 c3         1 XQ7      -0.064400
     20 C          -36.2910   130.4910     7.8850 c3         1 XQ7       0.154800
     21 N          -35.3000   129.9900     8.8280 n8         1 XQ7      -0.891800
     22 H1         -42.5000   138.7420     5.6030 hc         1 XQ7       0.066200
     23 H2         -43.8300   138.4500     6.7180 hc         1 XQ7       0.066200
     24 H3         -42.2860   137.3340     8.3080 hc         1 XQ7       0.058950
     25 H4         -42.1580   136.5890     6.7280 hc         1 XQ7       0.058950
     26 H5         -40.6230   140.4540     6.3640 hc         1 XQ7       0.066200
     27 H6         -40.8050   141.2040     7.9450 hc         1 XQ7       0.066200
     28 H7         -40.4240   139.0200     9.0560 hc         1 XQ7       0.058950
     29 H8         -39.1100   139.3640     7.9490 hc         1 XQ7       0.058950
     30 H9         -40.1670   137.9650     6.2070 hc         1 XQ7       0.050700
     31 H10        -39.8050   135.7790     7.1160 h1         1 XQ7       0.037200
     32 H11        -38.5380   136.9170     7.5990 h1         1 XQ7       0.037200
     33 H12        -40.2640   135.8040    11.5330 ha         1 XQ7       0.146000
     34 H13        -39.1080   134.0290    12.7990 ha         1 XQ7       0.134000
     35 H14        -37.3850   132.6300    11.7060 ha         1 XQ7       0.136000
     36 H15        -37.9750   134.7640     8.0510 ha         1 XQ7       0.144000
     37 H16        -35.8570   132.3880     9.9070 h1         1 XQ7       0.043700
     38 H17        -35.3610   134.1010     8.4670 ho         1 XQ7       0.405000
     39 H18        -37.9870   131.8090     7.8070 hc         1 XQ7       0.055700
     40 H19        -37.7820   130.9890     9.3440 hc         1 XQ7       0.055700
     41 H20        -35.8520   130.9340     6.9820 h1         1 XQ7       0.032700
     42 H21        -36.8890   129.6430     7.5450 h1         1 XQ7       0.032700
     43 H22        -34.8200   129.1980     8.4190 hn         1 XQ7       0.335800
     44 H23        -34.5820   130.6880     8.9740 hn         1 XQ7       0.335800
@<TRIPOS>BOND
     1     1     2 1   
     2     2     3 1   
     3     2     4 1   
     4     2     6 1   
     5     4     5 1   
     6     4    22 1   
     7     4    23 1   
     8     5     8 1   
     9     5    24 1   
    10     5    25 1   
    11     6     7 1   
    12     6    26 1   
    13     6    27 1   
    14     7     8 1   
    15     7    28 1   
    16     7    29 1   
    17     8     9 1   
    18     8    30 1   
    19     9    10 1   
    20     9    31 1   
    21     9    32 1   
    22    10    11 1   
    23    11    12 ar  
    24    11    15 ar  
    25    12    13 ar  
    26    12    33 1   
    27    13    14 ar  
    28    13    34 1   
    29    14    16 ar  
    30    14    35 1   
    31    15    16 ar  
    32    15    36 1   
    33    16    17 1   
    34    17    18 1   
    35    17    19 1   
    36    17    37 1   
    37    18    38 1   
    38    19    20 1   
    39    19    39 1   
    40    19    40 1   
    41    20    21 1   
    42    20    41 1   
    43    20    42 1   
    44    21    43 1   
    45    21    44 1   
@<TRIPOS>SUBSTRUCTURE
     1 XQ7         1 TEMP              0 ****  ****    0 ROOT
