@<TRIPOS>MOLECULE
XQ9
   53    56     1     0     0
SMALL
No Charge or Current Charge


@<TRIPOS>ATOM
      1 C1           4.7370     0.8210     2.1610 c3         1 XQ9      -0.380100
      2 S2           5.5660    -0.1870     0.9430 s6         1 XQ9       1.211100
      3 O3           6.8570     0.4120     0.5890 o          1 XQ9      -0.533500
      4 O4           5.5270    -1.5710     1.4250 o          1 XQ9      -0.533500
      5 N5           4.5900    -0.1280    -0.4850 n3         1 XQ9      -0.750500
      6 C6           4.0840     1.1880    -0.9550 c6         1 XQ9       0.206300
      7 C7           2.6590     1.5010    -0.4230 c6         1 XQ9      -0.125900
      8 C8           1.6760     0.3400    -0.7070 c6         1 XQ9       0.119700
      9 C9           2.2640    -0.9790    -0.1520 c6         1 XQ9      -0.125900
     10 C10          3.6550    -1.2470    -0.7670 c6         1 XQ9       0.206300
     11 N11          0.3720     0.6220    -0.0990 ns         1 XQ9      -0.515900
     12 C12         -0.8200     0.0860    -0.5020 c          1 XQ9       0.647100
     13 O13         -0.9240    -0.6810    -1.4440 o          1 XQ9      -0.640100
     14 N14         -1.8650     0.5180     0.2740 ns         1 XQ9      -0.515900
     15 C15         -3.2860     0.1560     0.1470 c6         1 XQ9       0.148400
     16 C16         -4.0650     0.9120     1.2720 c6         1 XQ9      -0.082400
     17 C17         -5.5860     0.5860     1.2120 c6         1 XQ9      -0.056033
     18 C18         -6.1500     1.0200    -0.1700 c6         1 XQ9      -0.070733
     19 C19         -5.3960     0.2620    -1.3000 c6         1 XQ9      -0.056033
     20 C20         -3.8790     0.6050    -1.2280 c6         1 XQ9      -0.082400
     21 C21         -5.5900    -1.2710    -1.1130 c6         1 XQ9      -0.070733
     22 C22         -5.0350    -1.7100     0.2750 c6         1 XQ9      -0.056033
     23 C23         -5.7900    -0.9450     1.3980 c6         1 XQ9      -0.070733
     24 C24         -3.5160    -1.3760     0.3530 c6         1 XQ9      -0.082400
     25 H11C         4.7140     1.8500     1.7900 h1         1 XQ9       0.098033
     26 H12C         3.7310     0.4160     2.3030 h1         1 XQ9       0.098033
     27 H13C         5.3190     0.7540     3.0850 h1         1 XQ9       0.098033
     28 H61C         4.7730     2.0020    -0.6850 h1         1 XQ9       0.075200
     29 H62C         4.0370     1.1810    -2.0550 h1         1 XQ9       0.075200
     30 H101         3.5320    -1.3550    -1.8550 h1         1 XQ9       0.075200
     31 H102         4.0440    -2.2140    -0.4140 h1         1 XQ9       0.075200
     32 H71C         2.6870     1.7130     0.6520 hc         1 XQ9       0.054200
     33 H72C         2.2910     2.4190    -0.9010 hc         1 XQ9       0.054200
     34 H8           1.5450     0.2450    -1.7970 h1         1 XQ9       0.089700
     35 H91C         2.3360    -0.9390     0.9430 hc         1 XQ9       0.054200
     36 H92C         1.5950    -1.8160    -0.3910 hc         1 XQ9       0.054200
     37 H11          0.3450     1.2500     0.6920 hn         1 XQ9       0.292500
     38 H14         -1.6220     1.1550     1.0190 hn         1 XQ9       0.298500
     39 H161        -3.6670     0.6370     2.2590 hc         1 XQ9       0.050533
     40 H162        -3.9160     1.9970     1.1740 hc         1 XQ9       0.050533
     41 H201        -3.7290     1.6830    -1.3730 hc         1 XQ9       0.050533
     42 H202        -3.3560     0.1080    -2.0550 hc         1 XQ9       0.050533
     43 H241        -2.9790    -1.9540    -0.4090 hc         1 XQ9       0.050533
     44 H242        -3.1100    -1.6940     1.3230 hc         1 XQ9       0.050533
     45 H17         -6.1120     1.1270     2.0110 hc         1 XQ9       0.052033
     46 H181        -7.2270     0.8090    -0.2240 hc         1 XQ9       0.042033
     47 H182        -6.0400     2.1050    -0.3020 hc         1 XQ9       0.042033
     48 H231        -5.4230    -1.2600     2.3850 hc         1 XQ9       0.042033
     49 H232        -6.8610    -1.1910     1.3720 hc         1 XQ9       0.042033
     50 H19         -5.7960     0.5680    -2.2770 hc         1 XQ9       0.052033
     51 H211        -6.6550    -1.5300    -1.1920 hc         1 XQ9       0.042033
     52 H212        -5.0780    -1.8190    -1.9160 hc         1 XQ9       0.042033
     53 H22         -5.1810    -2.7910     0.4050 hc         1 XQ9       0.052033
@<TRIPOS>BOND
     1     1     2 1   
     2     1    25 1   
     3     1    26 1   
     4     1    27 1   
     5     2     3 2   
     6     2     4 2   
     7     2     5 1   
     8     5     6 1   
     9     5    10 1   
    10     6     7 1   
    11     6    28 1   
    12     6    29 1   
    13     7     8 1   
    14     7    32 1   
    15     7    33 1   
    16     8     9 1   
    17     8    11 1   
    18     8    34 1   
    19     9    10 1   
    20     9    35 1   
    21     9    36 1   
    22    10    30 1   
    23    10    31 1   
    24    11    12 1   
    25    11    37 1   
    26    12    13 2   
    27    12    14 1   
    28    14    15 1   
    29    14    38 1   
    30    15    16 1   
    31    15    20 1   
    32    15    24 1   
    33    16    17 1   
    34    16    39 1   
    35    16    40 1   
    36    17    18 1   
    37    17    23 1   
    38    17    45 1   
    39    18    19 1   
    40    18    46 1   
    41    18    47 1   
    42    19    20 1   
    43    19    21 1   
    44    19    50 1   
    45    20    41 1   
    46    20    42 1   
    47    21    22 1   
    48    21    51 1   
    49    21    52 1   
    50    22    23 1   
    51    22    24 1   
    52    22    53 1   
    53    23    48 1   
    54    23    49 1   
    55    24    43 1   
    56    24    44 1   
@<TRIPOS>SUBSTRUCTURE
     1 XQ9         1 TEMP              0 ****  ****    0 ROOT
