@<TRIPOS>MOLECULE
XQ9
   53    56     1     0     0
SMALL
abcg2


@<TRIPOS>ATOM
      1 C1           4.8320     0.6630     2.1620 c3         1 XQ9      -0.380100
      2 S2           5.6010    -0.0210     0.7080 s6         1 XQ9       1.211100
      3 O3           6.5840     0.9490     0.2430 o          1 XQ9      -0.533500
      4 O4           6.0440    -1.3670     1.0410 o          1 XQ9      -0.533500
      5 N5           4.4620    -0.1590    -0.4670 n3         1 XQ9      -0.750500
      6 C6           3.9540     1.0410    -1.1270 c6         1 XQ9       0.206300
      7 C7           2.6020     1.4850    -0.5810 c6         1 XQ9      -0.125900
      8 C8           1.5950     0.3410    -0.6160 c6         1 XQ9       0.119700
      9 C9           2.1600    -0.8790     0.1110 c6         1 XQ9      -0.125900
     10 C10          3.5170    -1.2750    -0.4540 c6         1 XQ9       0.206300
     11 N11          0.3310     0.7800    -0.0690 ns         1 XQ9      -0.515900
     12 C12         -0.8410     0.1430    -0.3750 c          1 XQ9       0.647100
     13 O13         -0.9180    -0.6620    -1.2980 o          1 XQ9      -0.640100
     14 N14         -1.8870     0.4890     0.4190 ns         1 XQ9      -0.515900
     15 C15         -3.2850     0.1380     0.1960 c6         1 XQ9       0.148400
     16 C16         -4.0800     0.8030     1.3280 c6         1 XQ9      -0.082400
     17 C17         -5.5720     0.5000     1.1900 c6         1 XQ9      -0.056033
     18 C18         -6.0770     1.0300    -0.1520 c6         1 XQ9      -0.070733
     19 C19         -5.3040     0.3590    -1.2880 c6         1 XQ9      -0.056033
     20 C20         -3.8110     0.6690    -1.1470 c6         1 XQ9      -0.082400
     21 C21         -5.5100    -1.1570    -1.2250 c6         1 XQ9      -0.070733
     22 C22         -5.0120    -1.6840     0.1230 c6         1 XQ9      -0.056033
     23 C23         -5.7880    -1.0130     1.2560 c6         1 XQ9      -0.070733
     24 C24         -3.5190    -1.3770     0.2730 c6         1 XQ9      -0.082400
     25 H11C         4.4570     1.6620     1.9480 h1         1 XQ9       0.098033
     26 H12C         4.0170     0.0180     2.4830 h1         1 XQ9       0.098033
     27 H13C         5.5870     0.7170     2.9440 h1         1 XQ9       0.098033
     28 H61C         4.6840     1.8440    -1.0550 h1         1 XQ9       0.075200
     29 H62C         3.8600     0.8030    -2.1900 h1         1 XQ9       0.075200
     30 H101         3.4050    -1.6050    -1.4910 h1         1 XQ9       0.075200
     31 H102         3.9400    -2.1150     0.0930 h1         1 XQ9       0.075200
     32 H71C         2.7140     1.8520     0.4450 hc         1 XQ9       0.054200
     33 H72C         2.2400     2.3240    -1.1790 hc         1 XQ9       0.054200
     34 H8           1.4250     0.0720    -1.6620 h1         1 XQ9       0.089700
     35 H91C         2.2450    -0.6610     1.1800 hc         1 XQ9       0.054200
     36 H92C         1.4740    -1.7240     0.0110 hc         1 XQ9       0.054200
     37 H11          0.3810     1.2850     0.8030 hn         1 XQ9       0.292500
     38 H14         -1.7360     1.2470     1.0670 hn         1 XQ9       0.298500
     39 H161        -3.7090     0.4430     2.2940 hc         1 XQ9       0.050533
     40 H162        -3.9160     1.8870     1.3070 hc         1 XQ9       0.050533
     41 H201        -3.6390     1.7500    -1.2020 hc         1 XQ9       0.050533
     42 H202        -3.2580     0.2120    -1.9710 hc         1 XQ9       0.050533
     43 H241        -2.9520    -1.8830    -0.5100 hc         1 XQ9       0.050533
     44 H242        -3.1510    -1.7510     1.2350 hc         1 XQ9       0.050533
     45 H17         -6.1100     0.9870     2.0080 hc         1 XQ9       0.052033
     46 H181        -7.1490     0.8330    -0.2540 hc         1 XQ9       0.042033
     47 H182        -5.9510     2.1160    -0.2010 hc         1 XQ9       0.042033
     48 H231        -5.4520    -1.4010     2.2240 hc         1 XQ9       0.042033
     49 H232        -6.8550    -1.2450     1.1760 hc         1 XQ9       0.042033
     50 H19         -5.6590     0.7400    -2.2500 hc         1 XQ9       0.052033
     51 H211        -6.5680    -1.4010    -1.3590 hc         1 XQ9       0.042033
     52 H212        -4.9670    -1.6420    -2.0420 hc         1 XQ9       0.042033
     53 H22         -5.1570    -2.7680     0.1690 hc         1 XQ9       0.052033
@<TRIPOS>BOND
     1     1     2 1   
     2     1    25 1   
     3     1    26 1   
     4     1    27 1   
     5     2     3 2   
     6     2     4 2   
     7     2     5 1   
     8     5     6 1   
     9     5    10 1   
    10     6     7 1   
    11     6    28 1   
    12     6    29 1   
    13     7     8 1   
    14     7    32 1   
    15     7    33 1   
    16     8     9 1   
    17     8    11 1   
    18     8    34 1   
    19     9    10 1   
    20     9    35 1   
    21     9    36 1   
    22    10    30 1   
    23    10    31 1   
    24    11    12 1   
    25    11    37 1   
    26    12    13 2   
    27    12    14 1   
    28    14    15 1   
    29    14    38 1   
    30    15    16 1   
    31    15    20 1   
    32    15    24 1   
    33    16    17 1   
    34    16    39 1   
    35    16    40 1   
    36    17    18 1   
    37    17    23 1   
    38    17    45 1   
    39    18    19 1   
    40    18    46 1   
    41    18    47 1   
    42    19    20 1   
    43    19    21 1   
    44    19    50 1   
    45    20    41 1   
    46    20    42 1   
    47    21    22 1   
    48    21    51 1   
    49    21    52 1   
    50    22    23 1   
    51    22    24 1   
    52    22    53 1   
    53    23    48 1   
    54    23    49 1   
    55    24    43 1   
    56    24    44 1   
@<TRIPOS>SUBSTRUCTURE
     1 XQ9         1 TEMP              0 ****  ****    0 ROOT
