@<TRIPOS>MOLECULE
XQA
   69    71     1     0     0
SMALL
No Charge or Current Charge


@<TRIPOS>ATOM
      1 O74         -6.4320   -13.1050    18.0300 o          1 XQA      -0.634100
      2 C74         -5.7820   -14.1190    17.8210 c          1 XQA       0.606100
      3 C84         -4.2650   -14.1650    17.9720 c3         1 XQA      -0.179100
      4 N4A         -6.3560   -15.3060    17.4280 ns         1 XQA      -0.481900
      5 C4          -7.8010   -15.5430    17.1980 c6         1 XQA       0.038700
      6 C3          -8.0180   -16.5550    16.0330 c6         1 XQA       0.138300
      7 O3          -7.4110   -16.0550    14.8260 oh         1 XQA      -0.657000
      8 C5          -8.5220   -16.0940    18.4650 c6         1 XQA       0.173300
      9 C6          -8.4560   -15.1450    19.6880 c3         1 XQA      -0.082100
     10 O5          -9.9230   -16.2860    18.1820 os         1 XQA      -0.470000
     11 C1         -10.2190   -17.2410    17.1430 c6         1 XQA       0.450300
     12 C2          -9.5330   -16.8440    15.7930 c6         1 XQA       0.053700
     13 N2          -9.7050   -17.8990    14.7550 ns         1 XQA      -0.488900
     14 C7          -9.5850   -17.7160    13.4040 c          1 XQA       0.605100
     15 C8          -9.8240   -18.9450    12.5390 c3         1 XQA      -0.174100
     16 O7          -9.2740   -16.6290    12.9370 o          1 XQA      -0.699100
     17 O1          -9.7840   -18.5340    17.5410 os         1 XQA      -0.618400
     18 PB         -10.8600   -19.4980    18.2280 p5         1 XQA       1.467800
     19 O2B        -10.2580   -20.8100    18.5910 o          1 XQA      -0.838000
     20 O1B        -11.5020   -18.8860    19.4270 o          1 XQA      -0.838000
     21 O3A        -11.9410   -19.5600    17.0890 os         1 XQA      -0.722800
     22 PA         -11.7490   -20.6050    15.9400 p5         1 XQA       1.482800
     23 O2A        -12.7150   -20.3260    14.8410 o          1 XQA      -0.846500
     24 O1A        -10.3580   -20.5920    15.4080 o          1 XQA      -0.846500
     25 O5B        -12.1510   -21.9690    16.7020 os         1 XQA      -0.597400
     26 C5B        -13.5250   -22.3400    16.9370 c3         1 XQA       0.225600
     27 C4B        -14.2370   -21.3570    17.9220 c5         1 XQA       0.116300
     28 C2B        -13.6460   -21.3610    19.3870 c5         1 XQA       0.153300
     29 O3B        -13.7730   -20.0640    20.0160 oh         1 XQA      -0.722000
     30 C3B        -14.5520   -22.4600    20.0400 c5         1 XQA       0.124300
     31 O2         -14.4830   -22.5110    21.4810 oh         1 XQA      -0.680000
     32 C1B        -15.9090   -21.9710    19.4490 c5         1 XQA       0.288700
     33 O4B        -15.6350   -21.7520    18.0520 os         1 XQA      -0.464000
     34 N1         -16.9500   -23.0200    19.6260 n          1 XQA      -0.310000
     35 C12        -18.0550   -22.7310    20.4520 c          1 XQA       0.621000
     36 O6         -18.2280   -21.6530    20.9960 o          1 XQA      -0.562000
     37 C11        -16.7970   -24.2780    19.0350 cc         1 XQA       0.029600
     38 C10        -17.7460   -25.2450    19.2710 cd         1 XQA      -0.410200
     39 C9         -18.9120   -24.9970    20.1180 c          1 XQA       0.594200
     40 O4         -19.7750   -25.8250    20.3510 o          1 XQA      -0.558000
     41 N3         -18.9500   -23.7420    20.6300 ns         1 XQA      -0.476500
     42 H1          -3.8410   -13.2040    18.2830 hc         1 XQA       0.048033
     43 H2          -4.0000   -14.9690    18.6680 hc         1 XQA       0.048033
     44 H3          -3.8230   -14.5160    17.0320 hc         1 XQA       0.048033
     45 H4          -5.7130   -16.0670    17.2460 hn         1 XQA       0.312500
     46 H5          -8.2700   -14.5880    16.9200 h1         1 XQA       0.074700
     47 H6          -7.5430   -17.5080    16.3220 h1         1 XQA       0.109700
     48 H7          -8.0740   -16.2170    14.1010 ho         1 XQA       0.439000
     49 H8          -8.0780   -17.0570    18.7580 h1         1 XQA       0.060700
     50 H9          -9.0520   -15.5380    20.5210 hc         1 XQA       0.031700
     51 H10         -7.4280   -15.0330    20.0500 hc         1 XQA       0.031700
     52 H11         -8.8400   -14.1480    19.4410 hc         1 XQA       0.031700
     53 H12        -11.3070   -17.2430    16.9680 h2         1 XQA       0.089700
     54 H13        -10.0190   -15.9260    15.4340 h1         1 XQA       0.056700
     55 H14         -9.8880   -18.8620    15.0570 hn         1 XQA       0.405500
     56 H15         -9.6830   -18.7440    11.4720 hc         1 XQA       0.056700
     57 H16         -9.1790   -19.7590    12.8880 hc         1 XQA       0.056700
     58 H17        -10.8270   -19.3350    12.7470 hc         1 XQA       0.056700
     59 H20        -14.0820   -22.3540    15.9910 h1         1 XQA       0.035200
     60 H21        -13.5690   -23.3540    17.3540 h1         1 XQA       0.035200
     61 H22        -14.2190   -20.3480    17.4900 h1         1 XQA       0.096700
     62 H23        -12.5970   -21.6910    19.3930 h1         1 XQA       0.097700
     63 H24        -12.9130   -19.5690    19.8300 ho         1 XQA       0.514000
     64 H25        -14.2800   -23.4430    19.6300 h1         1 XQA       0.054700
     65 H26        -15.0940   -23.2240    21.7790 ho         1 XQA       0.494000
     66 H27        -16.2330   -21.0370    19.9270 h2         1 XQA       0.109700
     67 H28        -15.9210   -24.3770    18.3980 h4         1 XQA       0.236000
     68 H29        -17.6890   -26.2370    18.8370 ha         1 XQA       0.224000
     69 H30        -19.7380   -23.5300    21.2200 hn         1 XQA       0.327500
@<TRIPOS>BOND
     1     1     2 2   
     2     2     3 1   
     3     2     4 1   
     4     3    42 1   
     5     3    43 1   
     6     3    44 1   
     7     4     5 1   
     8     4    45 1   
     9     5     6 1   
    10     5     8 1   
    11     5    46 1   
    12     6     7 1   
    13     6    12 1   
    14     6    47 1   
    15     7    48 1   
    16     8     9 1   
    17     8    10 1   
    18     8    49 1   
    19     9    50 1   
    20     9    51 1   
    21     9    52 1   
    22    10    11 1   
    23    11    12 1   
    24    11    17 1   
    25    11    53 1   
    26    12    13 1   
    27    12    54 1   
    28    13    14 1   
    29    13    55 1   
    30    14    15 1   
    31    14    16 2   
    32    15    56 1   
    33    15    57 1   
    34    15    58 1   
    35    17    18 1   
    36    18    19 1   
    37    18    20 1   
    38    18    21 1   
    39    21    22 1   
    40    22    23 1   
    41    22    24 1   
    42    22    25 1   
    43    25    26 1   
    44    26    27 1   
    45    26    59 1   
    46    26    60 1   
    47    27    28 1   
    48    27    33 1   
    49    27    61 1   
    50    28    29 1   
    51    28    30 1   
    52    28    62 1   
    53    29    63 1   
    54    30    31 1   
    55    30    32 1   
    56    30    64 1   
    57    31    65 1   
    58    32    33 1   
    59    32    34 1   
    60    32    66 1   
    61    34    35 1   
    62    34    37 1   
    63    35    36 2   
    64    35    41 1   
    65    37    38 2   
    66    37    67 1   
    67    38    39 1   
    68    38    68 1   
    69    39    40 2   
    70    39    41 1   
    71    41    69 1   
@<TRIPOS>SUBSTRUCTURE
     1 XQA         1 TEMP              0 ****  ****    0 ROOT
