@<TRIPOS>MOLECULE
XQA
   69    71     1     0     0
SMALL
bcc


@<TRIPOS>ATOM
      1 O74         -5.1450   -14.1500    16.3140 o          1 XQA      -0.634100
      2 C74         -5.4820   -14.5710    17.4110 c          1 XQA       0.673100
      3 C84         -4.5510   -14.5110    18.5980 c3         1 XQA      -0.179100
      4 N4A         -6.6970   -15.0970    17.6630 ns         1 XQA      -0.548900
      5 C4          -7.7270   -15.2950    16.6740 c6         1 XQA       0.038700
      6 C3          -7.8540   -16.7810    16.3160 c6         1 XQA       0.115100
      7 O3          -6.6620   -17.3030    15.7950 oh         1 XQA      -0.594800
      8 C5          -9.0600   -14.7260    17.1850 c6         1 XQA       0.150100
      9 C6          -9.0150   -13.2210    17.3510 c3         1 XQA      -0.082100
     10 O5         -10.1040   -15.0150    16.2680 os         1 XQA      -0.423600
     11 C1         -10.3050   -16.3650    15.9810 c6         1 XQA       0.403900
     12 C2          -9.0410   -16.9710    15.3670 c6         1 XQA       0.053700
     13 N2          -9.2510   -18.3490    15.0180 ns         1 XQA      -0.555900
     14 C7          -8.8250   -18.8820    13.8590 c          1 XQA       0.672100
     15 C8          -9.0660   -20.3690    13.7330 c3         1 XQA      -0.174100
     16 O7          -8.2790   -18.2400    12.9680 o          1 XQA      -0.699100
     17 O1         -10.6190   -17.0910    17.1320 os         1 XQA      -0.595200
     18 PB         -12.1680   -17.3920    17.6210 p5         1 XQA       1.467800
     19 O2B        -12.0570   -17.7220    19.0720 o          1 XQA      -0.838000
     20 O1B        -13.0860   -16.3390    17.0950 o          1 XQA      -0.838000
     21 O3A        -12.5240   -18.7450    16.7460 os         1 XQA      -0.722800
     22 PA         -11.8650   -20.2450    16.7870 p5         1 XQA       1.482800
     23 O2A        -12.5540   -21.0120    15.7070 o          1 XQA      -0.846500
     24 O1A        -10.3660   -20.1580    16.8610 o          1 XQA      -0.846500
     25 O5B        -12.2970   -20.8040    18.2620 os         1 XQA      -0.574200
     26 C5B        -13.6460   -21.0220    18.6040 c3         1 XQA       0.202400
     27 C4B        -13.6440   -21.9620    19.7990 c5         1 XQA       0.093100
     28 C2B        -13.2040   -23.3940    19.4600 c5         1 XQA       0.130100
     29 O3B        -12.5950   -24.0400    20.5490 oh         1 XQA      -0.599800
     30 C3B        -14.5480   -24.0640    19.2110 c5         1 XQA       0.101100
     31 O2         -14.4900   -25.4510    19.3070 oh         1 XQA      -0.557800
     32 C1B        -15.4010   -23.3920    20.2930 c5         1 XQA       0.265500
     33 O4B        -14.9710   -22.0600    20.3250 os         1 XQA      -0.417600
     34 N1         -16.8310   -23.4220    20.0350 n          1 XQA      -0.377000
     35 C12        -17.6630   -24.0980    20.9100 c          1 XQA       0.830500
     36 O6         -17.2650   -24.6800    21.8960 o          1 XQA      -0.637500
     37 C11        -17.3400   -22.7630    18.9490 cc         1 XQA       0.079600
     38 C10        -18.6450   -22.7440    18.6420 cd         1 XQA      -0.360200
     39 C9         -19.5860   -23.4410    19.4860 c          1 XQA       0.736700
     40 O4         -20.7880   -23.5060    19.3170 o          1 XQA      -0.633500
     41 N3         -18.9900   -24.0660    20.5720 ns         1 XQA      -0.610500
     42 H1          -3.6230   -15.0270    18.3540 hc         1 XQA       0.048033
     43 H2          -4.2990   -13.4710    18.8040 hc         1 XQA       0.048033
     44 H3          -4.9620   -14.9500    19.5050 hc         1 XQA       0.048033
     45 H4          -6.8740   -15.4650    18.5850 hn         1 XQA       0.312500
     46 H5          -7.4380   -14.7410    15.7760 h1         1 XQA       0.074700
     47 H6          -8.0410   -17.3450    17.2370 h1         1 XQA       0.109700
     48 H7          -6.4780   -16.8750    14.9510 ho         1 XQA       0.400000
     49 H8          -9.2810   -15.1840    18.1600 h1         1 XQA       0.060700
     50 H9          -9.9730   -12.8440    17.7080 hc         1 XQA       0.031700
     51 H10         -8.2560   -12.9400    18.0790 hc         1 XQA       0.031700
     52 H11         -8.7790   -12.7280    16.4060 hc         1 XQA       0.031700
     53 H12        -11.1190   -16.3930    15.2500 h2         1 XQA       0.089700
     54 H13         -8.8380   -16.4170    14.4450 h1         1 XQA       0.056700
     55 H14         -9.6430   -18.9800    15.7280 hn         1 XQA       0.405500
     56 H15         -8.9460   -20.6830    12.6980 hc         1 XQA       0.056700
     57 H16         -8.3410   -20.9140    14.3400 hc         1 XQA       0.056700
     58 H17        -10.0570   -20.6540    14.0830 hc         1 XQA       0.056700
     59 H20        -14.1350   -20.0820    18.8820 h1         1 XQA       0.035200
     60 H21        -14.2130   -21.4560    17.7720 h1         1 XQA       0.035200
     61 H22        -12.9920   -21.5380    20.5710 h1         1 XQA       0.096700
     62 H23        -12.5650   -23.4140    18.5700 h1         1 XQA       0.097700
     63 H24        -11.7690   -23.5870    20.7480 ho         1 XQA       0.415000
     64 H25        -14.9010   -23.7440    18.2210 h1         1 XQA       0.054700
     65 H26        -15.2950   -25.8170    18.9270 ho         1 XQA       0.395000
     66 H27        -15.2460   -23.8910    21.2520 h2         1 XQA       0.109700
     67 H28        -16.6240   -22.2360    18.3350 h4         1 XQA       0.186000
     68 H29        -18.9980   -22.2100    17.7730 ha         1 XQA       0.174000
     69 H30        -19.6050   -24.5650    21.2030 hn         1 XQA       0.327500
@<TRIPOS>BOND
     1     1     2 2   
     2     2     3 1   
     3     2     4 1   
     4     3    42 1   
     5     3    43 1   
     6     3    44 1   
     7     4     5 1   
     8     4    45 1   
     9     5     6 1   
    10     5     8 1   
    11     5    46 1   
    12     6     7 1   
    13     6    12 1   
    14     6    47 1   
    15     7    48 1   
    16     8     9 1   
    17     8    10 1   
    18     8    49 1   
    19     9    50 1   
    20     9    51 1   
    21     9    52 1   
    22    10    11 1   
    23    11    12 1   
    24    11    17 1   
    25    11    53 1   
    26    12    13 1   
    27    12    54 1   
    28    13    14 1   
    29    13    55 1   
    30    14    15 1   
    31    14    16 2   
    32    15    56 1   
    33    15    57 1   
    34    15    58 1   
    35    17    18 1   
    36    18    19 1   
    37    18    20 1   
    38    18    21 1   
    39    21    22 1   
    40    22    23 1   
    41    22    24 1   
    42    22    25 1   
    43    25    26 1   
    44    26    27 1   
    45    26    59 1   
    46    26    60 1   
    47    27    28 1   
    48    27    33 1   
    49    27    61 1   
    50    28    29 1   
    51    28    30 1   
    52    28    62 1   
    53    29    63 1   
    54    30    31 1   
    55    30    32 1   
    56    30    64 1   
    57    31    65 1   
    58    32    33 1   
    59    32    34 1   
    60    32    66 1   
    61    34    35 1   
    62    34    37 1   
    63    35    36 2   
    64    35    41 1   
    65    37    38 2   
    66    37    67 1   
    67    38    39 1   
    68    38    68 1   
    69    39    40 2   
    70    39    41 1   
    71    41    69 1   
@<TRIPOS>SUBSTRUCTURE
     1 XQA         1 TEMP              0 ****  ****    0 ROOT
