@<TRIPOS>MOLECULE
XQB
   21    20     1     0     0
SMALL
No Charge or Current Charge


@<TRIPOS>ATOM
      1 OAE         -2.8780    -0.3980     1.4080 o          1 XQB      -0.725500
      2 CAJ         -2.8870     0.4560     0.5260 c          1 XQB       0.641700
      3 OAC         -3.9220     1.0650     0.2570 o          1 XQB      -0.725500
      4 CAL         -1.5680     0.7840    -0.2540 ce         1 XQB       0.403300
      5 NAA         -1.5350     1.7480    -1.1440 n2         1 XQB      -0.811100
      6 CAN         -0.2930     0.0240     0.1090 c3         1 XQB      -0.283000
      7 CAK         -0.4230    -1.4050    -0.4160 c          1 XQB       0.749000
      8 OAF         -0.5290    -1.5690    -1.6210 o          1 XQB      -0.745500
      9 OAD         -0.3960    -2.3270     0.3850 o          1 XQB      -0.745500
     10 CAI          1.0410     0.7010    -0.3530 c3         1 XQB      -0.074400
     11 CAM          2.3370    -0.0220     0.1100 c3         1 XQB       0.055300
     12 OAG          2.4520     0.0540     1.5550 oh         1 XQB      -0.625000
     13 CAH          3.5910     0.5620    -0.5980 c          1 XQB       0.541900
     14 OAB          4.5400     1.0620     0.0060 o          1 XQB      -0.581100
     15 H2          -0.5800     1.8220    -1.5140 hn         1 XQB       0.287400
     16 H3          -0.2440    -0.0420     1.2010 hc         1 XQB       0.074700
     17 H5           1.0500     0.7580    -1.4490 hc         1 XQB       0.017700
     18 H6           1.0680     1.7360     0.0120 hc         1 XQB       0.017700
     19 H7           2.2880    -1.0690    -0.2200 h1         1 XQB       0.134700
     20 H8           3.2860     0.5440     1.7420 ho         1 XQB       0.421000
     21 H9           3.5890     0.5010    -1.7090 h4         1 XQB      -0.027800
@<TRIPOS>BOND
     1     1     2 1   
     2     2     3 1   
     3     2     4 1   
     4     4     5 2   
     5     4     6 1   
     6     5    15 1   
     7     6     7 1   
     8     6    10 1   
     9     6    16 1   
    10     7     8 1   
    11     7     9 1   
    12    10    11 1   
    13    10    17 1   
    14    10    18 1   
    15    11    12 1   
    16    11    13 1   
    17    11    19 1   
    18    12    20 1   
    19    13    14 2   
    20    13    21 1   
@<TRIPOS>SUBSTRUCTURE
     1 XQB         1 TEMP              0 ****  ****    0 ROOT
