@<TRIPOS>MOLECULE
XQB
   21    20     1     0     0
SMALL
abcg2


@<TRIPOS>ATOM
      1 OAE         -2.7010    -0.4710     1.2820 o          1 XQB      -0.725500
      2 CAJ         -2.7830     0.3590     0.3560 c          1 XQB       0.641700
      3 OAC         -3.8180     0.8150    -0.1560 o          1 XQB      -0.725500
      4 CAL         -1.4410     0.8810    -0.1870 ce         1 XQB       0.403300
      5 NAA         -1.4540     1.9500    -0.8680 n2         1 XQB      -0.811100
      6 CAN         -0.2290     0.0600     0.1810 c3         1 XQB      -0.283000
      7 CAK         -0.4360    -1.3750    -0.3580 c          1 XQB       0.749000
      8 OAF         -1.0260    -1.4540    -1.4560 o          1 XQB      -0.745500
      9 OAD          0.0410    -2.3180     0.3000 o          1 XQB      -0.745500
     10 CAI          1.0740     0.6340    -0.3750 c3         1 XQB      -0.074400
     11 CAM          2.3290    -0.0910     0.1260 c3         1 XQB       0.055300
     12 OAG          2.5050    -0.0230     1.5110 oh         1 XQB      -0.625000
     13 CAH          3.5140     0.4430    -0.6340 c          1 XQB       0.541900
     14 OAB          4.4580     0.9940    -0.1260 o          1 XQB      -0.581100
     15 H2          -0.5130     2.2180    -1.1520 hn         1 XQB       0.287400
     16 H3          -0.1590     0.0300     1.2710 hc         1 XQB       0.074700
     17 H5           1.0550     0.5990    -1.4690 hc         1 XQB       0.017700
     18 H6           1.1740     1.6920    -0.1030 hc         1 XQB       0.017700
     19 H7           2.2460    -1.1520    -0.1340 h1         1 XQB       0.134700
     20 H8           2.7010     0.8890     1.7530 ho         1 XQB       0.421000
     21 H9           3.4500     0.3050    -1.7280 h4         1 XQB      -0.027800
@<TRIPOS>BOND
     1     1     2 1   
     2     2     3 1   
     3     2     4 1   
     4     4     5 2   
     5     4     6 1   
     6     5    15 1   
     7     6     7 1   
     8     6    10 1   
     9     6    16 1   
    10     7     8 1   
    11     7     9 1   
    12    10    11 1   
    13    10    17 1   
    14    10    18 1   
    15    11    12 1   
    16    11    13 1   
    17    11    19 1   
    18    12    20 1   
    19    13    14 2   
    20    13    21 1   
@<TRIPOS>SUBSTRUCTURE
     1 XQB         1 TEMP              0 ****  ****    0 ROOT
