@<TRIPOS>MOLECULE
XQC
   46    47     1     0     0
SMALL
No Charge or Current Charge


@<TRIPOS>ATOM
      1 CAA         -1.5970     1.3870    -0.0060 c3         1 XQC      -0.102600
      2 CAB         -1.5910    -0.1660    -0.0330 c3         1 XQC       0.200200
      3 CAC         -1.7260    -0.7350     1.4050 c3         1 XQC      -0.102600
      4 CAD         -2.7310    -0.7090    -0.9540 c3         1 XQC      -0.023100
      5 CAE         -4.1560    -0.3390    -0.5330 ca         1 XQC      -0.111300
      6 CAF         -4.7630     0.8330    -1.0270 ca         1 XQC      -0.069000
      7 CAG         -6.0760     1.1670    -0.6500 ca         1 XQC      -0.175000
      8 CAH         -6.7920     0.3260     0.2160 ca         1 XQC       0.137100
      9 CAJ         -6.1990    -0.8480     0.7020 ca         1 XQC      -0.175000
     10 CAK         -4.8870    -1.1840     0.3260 ca         1 XQC      -0.069000
     11 CAM          0.9820    -0.2020    -0.0630 c3         1 XQC       0.135800
     12 CAN          2.1790    -0.9500    -0.7260 c3         1 XQC       0.214600
     13 CAP          3.5430    -0.4620    -0.2300 ca         1 XQC      -0.114300
     14 CAQ          3.8340    -0.3840     1.1510 ca         1 XQC      -0.099000
     15 CAR          5.0920     0.0650     1.5910 ca         1 XQC      -0.120000
     16 CAS          6.0690     0.4360     0.6550 ca         1 XQC       0.126100
     17 CAU          5.7940     0.3570    -0.7240 ca         1 XQC       0.045100
     18 CAW          4.5360    -0.0910    -1.1630 ca         1 XQC      -0.144000
     19 NAL         -0.3200    -0.6530    -0.6300 n7         1 XQC      -0.874400
     20 OAI         -8.0650     0.6420     0.5850 oh         1 XQC      -0.534100
     21 OAO          2.0710    -2.3670    -0.5010 oh         1 XQC      -0.647000
     22 OAT          7.2920     0.8710     1.0730 oh         1 XQC      -0.534100
     23 OAV          6.7530     0.7180    -1.6350 oh         1 XQC      -0.558100
     24 H1          -1.4580     1.7980    -1.0130 hc         1 XQC       0.038533
     25 H2          -2.5460     1.7670     0.3890 hc         1 XQC       0.038533
     26 H3          -0.8040     1.7820     0.6400 hc         1 XQC       0.038533
     27 H4          -2.6750    -0.4250     1.8580 hc         1 XQC       0.038533
     28 H5          -1.6930    -1.8310     1.4010 hc         1 XQC       0.038533
     29 H6          -0.9280    -0.3700     2.0610 hc         1 XQC       0.038533
     30 H7          -2.5550    -0.3530    -1.9760 hc         1 XQC       0.052700
     31 H8          -2.6480    -1.8020    -1.0120 hc         1 XQC       0.052700
     32 H9          -4.2160     1.4880    -1.7020 ha         1 XQC       0.112500
     33 H10         -6.5280     2.0770    -1.0360 ha         1 XQC       0.120000
     34 H11         -6.7560    -1.5020     1.3690 ha         1 XQC       0.120000
     35 H12         -4.4380    -2.1000     0.7060 ha         1 XQC       0.112500
     36 H13          1.0170    -0.3810     1.0190 h1         1 XQC       0.035700
     37 H14          1.1210     0.8760    -0.2230 h1         1 XQC       0.035700
     38 H15          2.1160    -0.7460    -1.8050 h1         1 XQC       0.088700
     39 H16          3.0900    -0.6720     1.8910 ha         1 XQC       0.111000
     40 H17          5.3090     0.1230     2.6540 ha         1 XQC       0.132000
     41 H18          4.3240    -0.1530    -2.2280 ha         1 XQC       0.115000
     42 H19         -0.3230    -1.6790    -0.5920 hn         1 XQC       0.417000
     43 H21         -8.3120     1.4870     0.1530 ho         1 XQC       0.463000
     44 H22          2.4040    -2.5280     0.4060 ho         1 XQC       0.435000
     45 H23          7.8000     1.0680     0.2530 ho         1 XQC       0.482000
     46 H24          6.3920     0.5990    -2.5420 ho         1 XQC       0.475000
@<TRIPOS>BOND
     1     1     2 1   
     2     1    24 1   
     3     1    25 1   
     4     1    26 1   
     5     2     3 1   
     6     2     4 1   
     7     2    19 1   
     8     3    27 1   
     9     3    28 1   
    10     3    29 1   
    11     4     5 1   
    12     4    30 1   
    13     4    31 1   
    14     5     6 ar  
    15     5    10 ar  
    16     6     7 ar  
    17     6    32 1   
    18     7     8 ar  
    19     7    33 1   
    20     8     9 ar  
    21     8    20 1   
    22     9    10 ar  
    23     9    34 1   
    24    10    35 1   
    25    11    12 1   
    26    11    19 1   
    27    11    36 1   
    28    11    37 1   
    29    12    13 1   
    30    12    21 1   
    31    12    38 1   
    32    13    14 ar  
    33    13    18 ar  
    34    14    15 ar  
    35    14    39 1   
    36    15    16 ar  
    37    15    40 1   
    38    16    17 ar  
    39    16    22 1   
    40    17    18 ar  
    41    17    23 1   
    42    18    41 1   
    43    19    42 1   
    44    20    43 1   
    45    21    44 1   
    46    22    45 1   
    47    23    46 1   
@<TRIPOS>SUBSTRUCTURE
     1 XQC         1 TEMP              0 ****  ****    0 ROOT
