@<TRIPOS>MOLECULE
XQC
   46    47     1     0     0
SMALL
abcg2


@<TRIPOS>ATOM
      1 CAA         -1.4640     1.3020    -0.4320 c3         1 XQC      -0.102600
      2 CAB         -1.4890    -0.1790    -0.0630 c3         1 XQC       0.200200
      3 CAC         -1.6230    -0.3280     1.4560 c3         1 XQC      -0.102600
      4 CAD         -2.6620    -0.8840    -0.7840 c3         1 XQC      -0.023100
      5 CAE         -4.0430    -0.4080    -0.4340 ca         1 XQC      -0.111300
      6 CAF         -4.6640     0.6080    -1.1560 ca         1 XQC      -0.069000
      7 CAG         -5.9400     1.0540    -0.8420 ca         1 XQC      -0.175000
      8 CAH         -6.6360     0.4790     0.2160 ca         1 XQC       0.137100
      9 CAJ         -6.0390    -0.5460     0.9460 ca         1 XQC      -0.175000
     10 CAK         -4.7640    -0.9770     0.6160 ca         1 XQC      -0.069000
     11 CAM          0.9900    -0.4260    -0.0510 c3         1 XQC       0.135800
     12 CAN          2.1320    -1.1410    -0.7710 c3         1 XQC       0.214600
     13 CAP          3.4660    -0.6460    -0.2620 ca         1 XQC      -0.114300
     14 CAQ          3.9670    -1.0510     0.9690 ca         1 XQC      -0.099000
     15 CAR          5.1790    -0.5600     1.4370 ca         1 XQC      -0.120000
     16 CAS          5.9140     0.3430     0.6860 ca         1 XQC       0.126100
     17 CAU          5.4170     0.7560    -0.5560 ca         1 XQC       0.045100
     18 CAW          4.2070     0.2600    -1.0160 ca         1 XQC      -0.144000
     19 NAL         -0.2880    -0.8360    -0.5930 n7         1 XQC      -0.874400
     20 OAI         -7.8810     0.8650     0.5700 oh         1 XQC      -0.534100
     21 OAO          2.0070    -2.5470    -0.6930 oh         1 XQC      -0.647000
     22 OAT          7.0910     0.7970     1.1680 oh         1 XQC      -0.534100
     23 OAV          6.1830     1.6340    -1.2440 oh         1 XQC      -0.558100
     24 H1          -1.3310     1.4330    -1.5070 hc         1 XQC       0.038533
     25 H2          -2.3970     1.7860    -0.1420 hc         1 XQC       0.038533
     26 H3          -0.6590     1.8330     0.0770 hc         1 XQC       0.038533
     27 H4          -2.5310     0.1510     1.8260 hc         1 XQC       0.038533
     28 H5          -1.6570    -1.3800     1.7490 hc         1 XQC       0.038533
     29 H6          -0.7810     0.1330     1.9750 hc         1 XQC       0.038533
     30 H7          -2.5000    -0.7750    -1.8590 hc         1 XQC       0.052700
     31 H8          -2.5900    -1.9560    -0.5670 hc         1 XQC       0.052700
     32 H9          -4.1440     1.0630    -1.9900 ha         1 XQC       0.112500
     33 H10         -6.3930     1.8470    -1.4290 ha         1 XQC       0.120000
     34 H11         -6.5780    -1.0080     1.7640 ha         1 XQC       0.120000
     35 H12         -4.3220    -1.7820     1.1920 ha         1 XQC       0.112500
     36 H13          1.0960    -0.5980     1.0330 h1         1 XQC       0.035700
     37 H14          1.1250     0.6470    -0.2030 h1         1 XQC       0.035700
     38 H15          2.0540    -0.9040    -1.8360 h1         1 XQC       0.088700
     39 H16          3.4240    -1.7510     1.5930 ha         1 XQC       0.111000
     40 H17          5.5640    -0.8800     2.3970 ha         1 XQC       0.132000
     41 H18          3.8360     0.5830    -1.9840 ha         1 XQC       0.115000
     42 H19         -0.3870    -1.8360    -0.4590 hn         1 XQC       0.417000
     43 H21         -8.1890     1.5690    -0.0100 ho         1 XQC       0.463000
     44 H22          1.9850    -2.8110     0.2330 ho         1 XQC       0.435000
     45 H23          7.4840     1.4340     0.5610 ho         1 XQC       0.482000
     46 H24          5.7700     1.8700    -2.0810 ho         1 XQC       0.475000
@<TRIPOS>BOND
     1     1     2 1   
     2     1    24 1   
     3     1    25 1   
     4     1    26 1   
     5     2     3 1   
     6     2     4 1   
     7     2    19 1   
     8     3    27 1   
     9     3    28 1   
    10     3    29 1   
    11     4     5 1   
    12     4    30 1   
    13     4    31 1   
    14     5     6 ar  
    15     5    10 ar  
    16     6     7 ar  
    17     6    32 1   
    18     7     8 ar  
    19     7    33 1   
    20     8     9 ar  
    21     8    20 1   
    22     9    10 ar  
    23     9    34 1   
    24    10    35 1   
    25    11    12 1   
    26    11    19 1   
    27    11    36 1   
    28    11    37 1   
    29    12    13 1   
    30    12    21 1   
    31    12    38 1   
    32    13    14 ar  
    33    13    18 ar  
    34    14    15 ar  
    35    14    39 1   
    36    15    16 ar  
    37    15    40 1   
    38    16    17 ar  
    39    16    22 1   
    40    17    18 ar  
    41    17    23 1   
    42    18    41 1   
    43    19    42 1   
    44    20    43 1   
    45    21    44 1   
    46    22    45 1   
    47    23    46 1   
@<TRIPOS>SUBSTRUCTURE
     1 XQC         1 TEMP              0 ****  ****    0 ROOT
