@<TRIPOS>MOLECULE
XQE
   65    68     1     0     0
SMALL
abcg2


@<TRIPOS>ATOM
      1 C01        -22.6370   -11.2970    15.2880 c3         1 XQE      -0.091100
      2 C02        -23.8830   -11.4370    14.4220 c3         1 XQE       0.152600
      3 C03        -23.6180   -12.2800    13.1960 ca         1 XQE      -0.141300
      4 C04        -23.0340   -11.7060    12.0600 ca         1 XQE      -0.052200
      5 C06        -22.1210   -10.3120    10.5590 cc         1 XQE      -0.055300
      6 C07        -21.7050    -8.9400    10.0790 c          1 XQE       0.725200
      7 C10        -22.1380   -11.5530     9.9600 cd         1 XQE      -0.151400
      8 C11        -21.6180   -11.9640     8.6540 ca         1 XQE       0.098200
      9 C12        -20.3100   -11.6740     8.2610 ca         1 XQE      -0.085000
     10 C13        -19.8100   -12.1590     7.0680 ca         1 XQE      -0.092000
     11 C14        -20.5860   -12.9430     6.2140 ca         1 XQE      -0.163300
     12 C15        -20.0230   -13.4830     4.9450 c3         1 XQE      -0.201100
     13 C17        -19.5240   -10.9120     3.8530 c3         1 XQE      -0.331100
     14 C20        -21.8850   -13.2070     6.6160 ca         1 XQE       0.190000
     15 C22        -22.4060   -12.7420     7.8070 ca         1 XQE      -0.159000
     16 C23        -22.7200   -12.4580    10.9080 ca         1 XQE      -0.080800
     17 C24        -22.9790   -13.8340    10.8980 ca         1 XQE      -0.060000
     18 C25        -23.5590   -14.4050    12.0110 ca         1 XQE      -0.150000
     19 C26        -23.8760   -13.6370    13.1430 ca         1 XQE      -0.081000
     20 C28        -26.3090   -11.8850    14.8670 cc         1 XQE      -0.154000
     21 C29        -26.9400   -12.6260    15.8310 cd         1 XQE       0.142300
     22 C30        -28.3890   -12.9440    15.9920 c3         1 XQE       0.101700
     23 C32        -28.8190   -14.4480    14.1090 c          1 XQE       0.607100
     24 C34        -28.9990   -15.9150    13.7180 c3         1 XQE       0.086500
     25 C36        -27.6880   -16.6630    13.9420 c3         1 XQE       0.173600
     26 F21        -22.6640   -13.9710     5.8350 f          1 XQE      -0.184000
     27 N05        -22.6570   -10.4230    11.8120 na         1 XQE      -0.201700
     28 N27        -25.0060   -11.9730    15.1820 na         1 XQE       0.136800
     29 N31        -28.7350   -14.2360    15.4370 ns         1 XQE      -0.514900
     30 N35        -29.4040   -16.0120    12.3310 n8         1 XQE      -0.956200
     31 N38        -25.9900   -13.1160    16.6590 nd         1 XQE      -0.382000
     32 N39        -24.8310   -12.7220    16.2560 nc         1 XQE      -0.213800
     33 O08        -21.3790    -8.8340     8.8860 o          1 XQE      -0.699500
     34 O09        -21.7550    -8.0490    10.9500 o          1 XQE      -0.699500
     35 O18        -21.8010   -12.1690     3.4450 o          1 XQE      -0.529000
     36 O19        -19.7240   -13.0810     2.3620 o          1 XQE      -0.529000
     37 O33        -28.7650   -13.5420    13.2960 o          1 XQE      -0.559100
     38 O37        -26.6470   -15.9930    13.2740 oh         1 XQE      -0.620000
     39 S16        -20.3660   -12.4420     3.5100 s6         1 XQE       1.064000
     40 H013       -22.8310   -10.6780    16.1630 hc         1 XQE       0.053033
     41 H011       -22.2630   -12.2660    15.6120 hc         1 XQE       0.053033
     42 H012       -21.8580   -10.8140    14.7000 hc         1 XQE       0.053033
     43 H021       -24.2000   -10.4390    14.1080 h1         1 XQE       0.065700
     44 H121       -19.6740   -11.0900     8.9100 ha         1 XQE       0.137000
     45 H131       -18.7840   -11.9460     6.7930 ha         1 XQE       0.098000
     46 H151       -20.4300   -14.4590     4.6720 h1         1 XQE       0.096700
     47 H152       -18.9370   -13.5740     4.9960 h1         1 XQE       0.096700
     48 H171       -19.9490   -10.4400     4.7350 h1         1 XQE       0.104367
     49 H172       -18.4620   -11.1000     3.9940 h1         1 XQE       0.104367
     50 H173       -19.6750   -10.2710     2.9850 h1         1 XQE       0.104367
     51 H221       -23.4290   -12.9830     8.0700 ha         1 XQE       0.136000
     52 H241       -22.7330   -14.4400    10.0350 ha         1 XQE       0.111000
     53 H251       -23.7740   -15.4650    12.0210 ha         1 XQE       0.096000
     54 H261       -24.3310   -14.1330    13.9910 ha         1 XQE       0.106000
     55 H281       -26.6720   -11.3280    14.0200 h4         1 XQE       0.185000
     56 H301       -28.9970   -12.1690    15.5270 h1         1 XQE       0.057700
     57 H302       -28.6490   -12.9640    17.0490 h1         1 XQE       0.057700
     58 H341       -29.7250   -16.3580    14.4180 h1         1 XQE       0.013700
     59 H361       -27.4990   -16.7380    15.0190 h1         1 XQE       0.011700
     60 H362       -27.8150   -17.6920    13.5770 h1         1 XQE       0.011700
     61 H051       -22.7500    -9.6210    12.4150 hn         1 XQE       0.368000
     62 H311       -28.7530   -15.0230    16.0660 hn         1 XQE       0.306500
     63 H352       -29.5820   -16.9850    12.1140 hn         1 XQE       0.396000
     64 H351       -30.2830   -15.5310    12.1910 hn         1 XQE       0.396000
     65 H371       -25.8190   -16.4330    13.4870 ho         1 XQE       0.440000
@<TRIPOS>BOND
     1     1     2 1   
     2     1    40 1   
     3     1    41 1   
     4     1    42 1   
     5     2     3 1   
     6     2    28 1   
     7     2    43 1   
     8     3     4 ar  
     9     3    19 ar  
    10     4    16 ar  
    11     4    27 1   
    12     5     6 1   
    13     5     7 2   
    14     5    27 1   
    15     6    33 1   
    16     6    34 1   
    17     7     8 1   
    18     7    16 1   
    19     8     9 ar  
    20     8    15 ar  
    21     9    10 ar  
    22     9    44 1   
    23    10    11 ar  
    24    10    45 1   
    25    11    12 1   
    26    11    14 ar  
    27    12    39 1   
    28    12    46 1   
    29    12    47 1   
    30    13    39 1   
    31    13    48 1   
    32    13    49 1   
    33    13    50 1   
    34    14    15 ar  
    35    14    26 1   
    36    15    51 1   
    37    16    17 ar  
    38    17    18 ar  
    39    17    52 1   
    40    18    19 ar  
    41    18    53 1   
    42    19    54 1   
    43    20    21 2   
    44    20    28 1   
    45    20    55 1   
    46    21    22 1   
    47    21    31 1   
    48    22    29 1   
    49    22    56 1   
    50    22    57 1   
    51    23    24 1   
    52    23    29 1   
    53    23    37 2   
    54    24    25 1   
    55    24    30 1   
    56    24    58 1   
    57    25    38 1   
    58    25    59 1   
    59    25    60 1   
    60    27    61 1   
    61    28    32 1   
    62    29    62 1   
    63    30    63 1   
    64    30    64 1   
    65    31    32 2   
    66    35    39 2   
    67    36    39 2   
    68    38    65 1   
@<TRIPOS>SUBSTRUCTURE
     1 XQE         1 TEMP              0 ****  ****    0 ROOT
