@<TRIPOS>MOLECULE
XQE
   65    68     1     0     0
SMALL
No Charge or Current Charge


@<TRIPOS>ATOM
      1 C01        -22.5690   -10.9100    15.3330 c3         1 XQE      -0.091100
      2 C02        -23.7930   -11.4170    14.5340 c3         1 XQE       0.152600
      3 C03        -23.3450   -12.3010    13.3620 ca         1 XQE      -0.141300
      4 C04        -22.9840   -11.7440    12.1190 ca         1 XQE      -0.052200
      5 C06        -22.4880   -10.2720    10.4150 cc         1 XQE      -0.055300
      6 C07        -22.3570    -8.9910     9.6440 c          1 XQE       0.725200
      7 C10        -22.2820   -11.5920     9.9750 cd         1 XQE      -0.151400
      8 C11        -21.5880   -12.0450     8.7480 ca         1 XQE       0.098200
      9 C12        -20.4480   -11.3740     8.2600 ca         1 XQE      -0.085000
     10 C13        -19.7780   -11.8290     7.1110 ca         1 XQE      -0.092000
     11 C14        -20.2380   -12.9660     6.4230 ca         1 XQE      -0.163300
     12 C15        -19.5000   -13.4480     5.1690 c3         1 XQE      -0.201100
     13 C17        -20.0390   -11.0240     3.7460 c3         1 XQE      -0.331100
     14 C20        -21.3720   -13.6450     6.9140 ca         1 XQE       0.190000
     15 C22        -22.0360   -13.1910     8.0630 ca         1 XQE      -0.159000
     16 C23        -22.5790   -12.5140    11.0620 ca         1 XQE      -0.080800
     17 C24        -22.4670   -13.9100    11.1730 ca         1 XQE      -0.060000
     18 C25        -22.8180   -14.5040    12.4020 ca         1 XQE      -0.150000
     19 C26        -23.2550   -13.7100    13.4850 ca         1 XQE      -0.081000
     20 C28        -26.1760   -12.1450    15.0800 cc         1 XQE      -0.154000
     21 C29        -26.6930   -12.8230    16.1470 cd         1 XQE       0.142300
     22 C30        -28.1240   -13.2490    16.3720 c3         1 XQE       0.101700
     23 C32        -28.9010   -14.3380    14.2310 c          1 XQE       0.607100
     24 C34        -29.2100   -15.7270    13.5620 c3         1 XQE       0.086500
     25 C36        -28.0620   -16.1300    12.5850 c3         1 XQE       0.173600
     26 F21        -21.8340   -14.7470     6.2820 f          1 XQE      -0.184000
     27 N05        -22.9340   -10.4120    11.7470 na         1 XQE      -0.201700
     28 N27        -24.8400   -12.0490    15.3750 na         1 XQE       0.136800
     29 N31        -28.4960   -14.4090    15.5510 ns         1 XQE      -0.514900
     30 N35        -30.5860   -15.8830    12.9530 n8         1 XQE      -0.956200
     31 N38        -25.6810   -13.1090    17.0420 nd         1 XQE      -0.382000
     32 N39        -24.5550   -12.6400    16.5770 nc         1 XQE      -0.213800
     33 O08        -22.1330    -9.0040     8.4430 o          1 XQE      -0.699500
     34 O09        -22.5550    -7.9500    10.2560 o          1 XQE      -0.699500
     35 O18        -21.5600   -13.1660     3.4860 o          1 XQE      -0.529000
     36 O19        -19.2150   -13.2160     2.5300 o          1 XQE      -0.529000
     37 O33        -29.0490   -13.2600    13.6660 o          1 XQE      -0.559100
     38 O37        -28.0630   -15.3360    11.3880 oh         1 XQE      -0.620000
     39 S16        -20.1400   -12.8080     3.5950 s6         1 XQE       1.064000
     40 H013       -22.8840   -10.2370    16.1390 hc         1 XQE       0.053033
     41 H011       -22.0140   -11.7470    15.7730 hc         1 XQE       0.053033
     42 H012       -21.8850   -10.3580    14.6770 hc         1 XQE       0.053033
     43 H021       -24.2730   -10.5280    14.1070 h1         1 XQE       0.065700
     44 H121       -20.0580   -10.5110     8.7910 ha         1 XQE       0.137000
     45 H131       -18.8970   -11.2960     6.7610 ha         1 XQE       0.098000
     46 H151       -19.5450   -14.5400     5.0880 h1         1 XQE       0.096700
     47 H152       -18.4460   -13.1500     5.2060 h1         1 XQE       0.096700
     48 H171       -20.6880   -10.7220     4.5740 h1         1 XQE       0.104367
     49 H172       -18.9940   -10.7640     3.9440 h1         1 XQE       0.104367
     50 H173       -20.3820   -10.5930     2.8000 h1         1 XQE       0.104367
     51 H221       -22.9230   -13.7170     8.4020 ha         1 XQE       0.136000
     52 H241       -22.1050   -14.5260    10.3560 ha         1 XQE       0.111000
     53 H251       -22.7410   -15.5820    12.5200 ha         1 XQE       0.096000
     54 H261       -23.5070   -14.1990    14.4240 ha         1 XQE       0.106000
     55 H281       -26.6290   -11.7590    14.1770 h4         1 XQE       0.185000
     56 H301       -28.7930   -12.4080    16.1430 h1         1 XQE       0.057700
     57 H302       -28.2650   -13.5080    17.4300 h1         1 XQE       0.057700
     58 H341       -29.1770   -16.4650    14.3750 h1         1 XQE       0.013700
     59 H361       -27.1000   -16.0250    13.1040 h1         1 XQE       0.011700
     60 H362       -28.1770   -17.1900    12.3250 h1         1 XQE       0.011700
     61 H051       -23.1850    -9.6290    12.3390 hn         1 XQE       0.368000
     62 H311       -28.4160   -15.3330    15.9580 hn         1 XQE       0.306500
     63 H352       -30.6930   -16.8380    12.5910 hn         1 XQE       0.396000
     64 H351       -31.2990   -15.8180    13.6900 hn         1 XQE       0.396000
     65 H371       -27.3570   -15.6940    10.8070 ho         1 XQE       0.440000
@<TRIPOS>BOND
     1     1     2 1   
     2     1    40 1   
     3     1    41 1   
     4     1    42 1   
     5     2     3 1   
     6     2    28 1   
     7     2    43 1   
     8     3     4 ar  
     9     3    19 ar  
    10     4    16 ar  
    11     4    27 1   
    12     5     6 1   
    13     5     7 2   
    14     5    27 1   
    15     6    33 1   
    16     6    34 1   
    17     7     8 1   
    18     7    16 1   
    19     8     9 ar  
    20     8    15 ar  
    21     9    10 ar  
    22     9    44 1   
    23    10    11 ar  
    24    10    45 1   
    25    11    12 1   
    26    11    14 ar  
    27    12    39 1   
    28    12    46 1   
    29    12    47 1   
    30    13    39 1   
    31    13    48 1   
    32    13    49 1   
    33    13    50 1   
    34    14    15 ar  
    35    14    26 1   
    36    15    51 1   
    37    16    17 ar  
    38    17    18 ar  
    39    17    52 1   
    40    18    19 ar  
    41    18    53 1   
    42    19    54 1   
    43    20    21 2   
    44    20    28 1   
    45    20    55 1   
    46    21    22 1   
    47    21    31 1   
    48    22    29 1   
    49    22    56 1   
    50    22    57 1   
    51    23    24 1   
    52    23    29 1   
    53    23    37 2   
    54    24    25 1   
    55    24    30 1   
    56    24    58 1   
    57    25    38 1   
    58    25    59 1   
    59    25    60 1   
    60    27    61 1   
    61    28    32 1   
    62    29    62 1   
    63    30    63 1   
    64    30    64 1   
    65    31    32 2   
    66    35    39 2   
    67    36    39 2   
    68    38    65 1   
@<TRIPOS>SUBSTRUCTURE
     1 XQE         1 TEMP              0 ****  ****    0 ROOT
