@<TRIPOS>MOLECULE
XQG
   17    18     1     0     0
SMALL
No Charge or Current Charge


@<TRIPOS>ATOM
      1 C6           0.6590     0.1050     0.0050 ca         1 XQG       0.278300
      2 C5          -0.6720    -0.3700    -0.0040 ca         1 XQG      -0.026600
      3 C4          -1.6980     0.5430    -0.0040 ca         1 XQG       0.100500
      4 C2          -0.1900     2.2530     0.0120 ca         1 XQG       0.149900
      5 C8          -2.4830    -1.5470    -0.0190 cc         1 XQG       0.414700
      6 C11          3.5390     0.0720     0.0190 c3         1 XQG       0.016900
      7 N1           0.8940     1.4390     0.0130 nb         1 XQG      -0.227000
      8 N3          -1.4900     1.8710     0.0040 nb         1 XQG      -0.180000
      9 N9          -2.8370    -0.2010    -0.0140 na         1 XQG      -0.412300
     10 N7          -1.1440    -1.6870    -0.0130 nd         1 XQG      -0.535100
     11 S1           2.0520    -1.0300     0.0060 ss         1 XQG      -0.287300
     12 H9          -3.7840     0.1550    -0.0170 hn         1 XQG       0.372000
     13 H2           0.0030     3.3240     0.0190 h5         1 XQG       0.051100
     14 H8          -3.2160    -2.3460    -0.0270 h5         1 XQG       0.069800
     15 H111         3.5370     0.7110    -0.8730 h1         1 XQG       0.071367
     16 H112         3.5290     0.7020     0.9170 h1         1 XQG       0.071367
     17 H113         4.4500    -0.5390     0.0200 h1         1 XQG       0.071367
@<TRIPOS>BOND
     1     1     2 ar  
     2     1     7 ar  
     3     1    11 1   
     4     2     3 ar  
     5     2    10 1   
     6     3     8 ar  
     7     3     9 1   
     8     4     7 ar  
     9     4     8 ar  
    10     4    13 1   
    11     5     9 1   
    12     5    10 2   
    13     5    14 1   
    14     6    11 1   
    15     6    15 1   
    16     6    16 1   
    17     6    17 1   
    18     9    12 1   
@<TRIPOS>SUBSTRUCTURE
     1 XQG         1 TEMP              0 ****  ****    0 ROOT
