@<TRIPOS>MOLECULE
XQG
   17    18     1     0     0
SMALL
abcg2


@<TRIPOS>ATOM
      1 C6           0.6880     0.0810     0.0050 ca         1 XQG       0.278300
      2 C5          -0.6140    -0.4170    -0.0040 ca         1 XQG      -0.026600
      3 C4          -1.6320     0.5390    -0.0050 ca         1 XQG       0.100500
      4 C2          -0.1870     2.1980     0.0120 ca         1 XQG       0.149900
      5 C8          -2.4240    -1.4950    -0.0180 cc         1 XQG       0.414700
      6 C11          3.4410     0.1050     0.0180 c3         1 XQG       0.016900
      7 N1           0.8760     1.3920     0.0130 nb         1 XQG      -0.227000
      8 N3          -1.4620     1.8540     0.0030 nb         1 XQG      -0.180000
      9 N9          -2.7830    -0.1830    -0.0140 na         1 XQG      -0.412300
     10 N7          -1.1350    -1.6820    -0.0120 nd         1 XQG      -0.535100
     11 S1           2.0340    -1.0240     0.0050 ss         1 XQG      -0.287300
     12 H9          -3.7260     0.1770    -0.0170 hn         1 XQG       0.372000
     13 H2           0.0280     3.2600     0.0200 h5         1 XQG       0.051100
     14 H8          -3.1670    -2.2780    -0.0260 h5         1 XQG       0.069800
     15 H111         3.4490     0.7320    -0.8690 h1         1 XQG       0.071367
     16 H112         3.4380     0.7240     0.9110 h1         1 XQG       0.071367
     17 H113         4.3260    -0.5270     0.0210 h1         1 XQG       0.071367
@<TRIPOS>BOND
     1     1     2 ar  
     2     1     7 ar  
     3     1    11 1   
     4     2     3 ar  
     5     2    10 1   
     6     3     8 ar  
     7     3     9 1   
     8     4     7 ar  
     9     4     8 ar  
    10     4    13 1   
    11     5     9 1   
    12     5    10 2   
    13     5    14 1   
    14     6    11 1   
    15     6    15 1   
    16     6    16 1   
    17     6    17 1   
    18     9    12 1   
@<TRIPOS>SUBSTRUCTURE
     1 XQG         1 TEMP              0 ****  ****    0 ROOT
