@<TRIPOS>MOLECULE
XQI
   23    23     1     0     0
SMALL
No Charge or Current Charge


@<TRIPOS>ATOM
      1 CG           0.1660     0.3150    -0.6670 ca         1 XQI       0.006700
      2 CD1          0.5980    -1.0120    -0.4820 ca         1 XQI      -0.228000
      3 CD2          1.0190     1.3750    -0.3050 ca         1 XQI      -0.228000
      4 CE1          1.8670    -1.2730     0.0570 ca         1 XQI       0.177100
      5 CE2          2.2870     1.1080     0.2340 ca         1 XQI       0.177100
      6 CZ           2.7110    -0.2140     0.4140 ca         1 XQI      -0.179000
      7 OH1          2.2820    -2.5570     0.2350 oh         1 XQI      -0.530100
      8 OH2          3.1100     2.1340     0.5830 oh         1 XQI      -0.530100
      9 C           -2.2790     0.5490    -0.1560 c          1 XQI       0.588100
     10 O           -2.4490     1.4410     0.6660 o          1 XQI      -0.471000
     11 C9          -1.2120     0.5970    -1.2500 c3         1 XQI      -0.097100
     12 OXT         -3.0140    -0.6080    -0.2080 os         1 XQI      -0.449100
     13 CH3         -4.0540    -0.7930     0.7710 c3         1 XQI       0.152900
     14 HD1         -0.0570    -1.8340    -0.7580 ha         1 XQI       0.115000
     15 HD2          0.6900     2.4020    -0.4420 ha         1 XQI       0.115000
     16 H91C        -1.2270     1.5920    -1.7070 hc         1 XQI       0.079200
     17 H92C        -1.4410    -0.1550    -2.0140 hc         1 XQI       0.079200
     18 HZ           3.6930    -0.4180     0.8320 ha         1 XQI       0.145000
     19 HH1          1.5670    -3.1550    -0.0700 ho         1 XQI       0.467000
     20 HH2          2.6480     2.9770     0.3870 ho         1 XQI       0.467000
     21 HH31        -3.6400    -0.7880     1.7880 h1         1 XQI       0.049033
     22 HH32        -4.8070     0.0020     0.6980 h1         1 XQI       0.049033
     23 HH33        -4.5590    -1.7550     0.6140 h1         1 XQI       0.049033
@<TRIPOS>BOND
     1     1     2 ar  
     2     1     3 ar  
     3     1    11 1   
     4     2     4 ar  
     5     2    14 1   
     6     3     5 ar  
     7     3    15 1   
     8     4     6 ar  
     9     4     7 1   
    10     5     6 ar  
    11     5     8 1   
    12     6    18 1   
    13     7    19 1   
    14     8    20 1   
    15     9    10 2   
    16     9    11 1   
    17     9    12 1   
    18    11    16 1   
    19    11    17 1   
    20    12    13 1   
    21    13    21 1   
    22    13    22 1   
    23    13    23 1   
@<TRIPOS>SUBSTRUCTURE
     1 XQI         1 TEMP              0 ****  ****    0 ROOT
