@<TRIPOS>MOLECULE
XQI
   23    23     1     0     0
SMALL
abcg2


@<TRIPOS>ATOM
      1 CG           0.2200     0.0470    -0.5920 ca         1 XQI       0.006700
      2 CD1          0.8800    -1.1650    -0.4360 ca         1 XQI      -0.228000
      3 CD2          0.8690     1.2400    -0.3070 ca         1 XQI      -0.228000
      4 CE1          2.1990    -1.1780     0.0130 ca         1 XQI       0.177100
      5 CE2          2.1890     1.2180     0.1390 ca         1 XQI       0.177100
      6 CZ           2.8580     0.0110     0.3030 ca         1 XQI      -0.179000
      7 OH1          2.8870    -2.3230     0.1850 oh         1 XQI      -0.530100
      8 OH2          2.8680     2.3450     0.4260 oh         1 XQI      -0.530100
      9 C           -2.1880    -0.0280     0.0850 c          1 XQI       0.588100
     10 O           -1.8930    -0.0720     1.2520 o          1 XQI      -0.471000
     11 C9          -1.2060     0.0650    -1.0590 c3         1 XQI      -0.097100
     12 OXT         -3.4360    -0.0510    -0.3610 os         1 XQI      -0.449100
     13 CH3         -4.4820    -0.1180     0.6090 c3         1 XQI       0.152900
     14 HD1          0.3720    -2.0950    -0.6640 ha         1 XQI       0.115000
     15 HD2          0.3520     2.1850    -0.4380 ha         1 XQI       0.115000
     16 H91C        -1.4210     0.9800    -1.6160 hc         1 XQI       0.079200
     17 H92C        -1.4010    -0.7590    -1.7500 hc         1 XQI       0.079200
     18 HZ           3.8840    -0.0030     0.6500 ha         1 XQI       0.145000
     19 HH1          2.3320    -3.0820    -0.0260 ho         1 XQI       0.467000
     20 HH2          2.3090     3.1170     0.2870 ho         1 XQI       0.467000
     21 HH31        -4.4150    -1.0270     1.2050 h1         1 XQI       0.049033
     22 HH32        -4.4680     0.7490     1.2690 h1         1 XQI       0.049033
     23 HH33        -5.4100    -0.1250     0.0450 h1         1 XQI       0.049033
@<TRIPOS>BOND
     1     1     2 ar  
     2     1     3 ar  
     3     1    11 1   
     4     2     4 ar  
     5     2    14 1   
     6     3     5 ar  
     7     3    15 1   
     8     4     6 ar  
     9     4     7 1   
    10     5     6 ar  
    11     5     8 1   
    12     6    18 1   
    13     7    19 1   
    14     8    20 1   
    15     9    10 2   
    16     9    11 1   
    17     9    12 1   
    18    11    16 1   
    19    11    17 1   
    20    12    13 1   
    21    13    21 1   
    22    13    22 1   
    23    13    23 1   
@<TRIPOS>SUBSTRUCTURE
     1 XQI         1 TEMP              0 ****  ****    0 ROOT
