@<TRIPOS>MOLECULE
XQJ
   15    15     1     0     0
SMALL
bcc


@<TRIPOS>ATOM
      1 C01         32.6710    -8.5100     0.9440 c3         1 XQJ      -0.048800
      2 C02         33.0320    -8.2350     2.3740 ca         1 XQJ      -0.076300
      3 C03         32.6670    -9.1160     3.3900 ca         1 XQJ      -0.115000
      4 C04         33.0310    -8.8720     4.7050 ca         1 XQJ      -0.127000
      5 C05         33.7660    -7.7420     5.0400 ca         1 XQJ      -0.103000
      6 C06         34.1220    -6.8650     4.0270 ca         1 XQJ       0.063900
      7 C08         33.7660    -7.0970     2.7070 ca         1 XQJ      -0.101000
      8 I07         35.2240    -5.1340     4.5030 i          1 XQJ      -0.182900
      9 H1          33.4380    -9.1200     0.4620 hc         1 XQJ       0.045033
     10 H2          31.7300    -9.0550     0.8700 hc         1 XQJ       0.045033
     11 H3          32.5800    -7.5900     0.3690 hc         1 XQJ       0.045033
     12 H4          32.0890    -9.9990     3.1480 ha         1 XQJ       0.133000
     13 H5          32.7410    -9.5650     5.4850 ha         1 XQJ       0.134000
     14 H6          34.0440    -7.5590     6.0690 ha         1 XQJ       0.145000
     15 H7          34.0480    -6.4020     1.9270 ha         1 XQJ       0.143000
@<TRIPOS>BOND
     1     1     2 1   
     2     1     9 1   
     3     1    10 1   
     4     1    11 1   
     5     2     3 ar  
     6     2     7 ar  
     7     3     4 ar  
     8     3    12 1   
     9     4     5 ar  
    10     4    13 1   
    11     5     6 ar  
    12     5    14 1   
    13     6     7 ar  
    14     6     8 1   
    15     7    15 1   
@<TRIPOS>SUBSTRUCTURE
     1 XQJ         1 TEMP              0 ****  ****    0 ROOT
