@<TRIPOS>MOLECULE
XQJ
   15    15     1     0     0
SMALL
No Charge or Current Charge


@<TRIPOS>ATOM
      1 C01         32.6590    -8.5200     0.9220 c3         1 XQJ      -0.048800
      2 C02         33.0410    -8.2440     2.3690 ca         1 XQJ      -0.076300
      3 C03         32.6620    -9.1410     3.3870 ca         1 XQJ      -0.097000
      4 C04         33.0180    -8.8880     4.7240 ca         1 XQJ      -0.109000
      5 C05         33.7560    -7.7370     5.0500 ca         1 XQJ      -0.085000
      6 C06         34.1370    -6.8420     4.0370 ca         1 XQJ       0.201000
      7 C08         33.7830    -7.0930     2.7010 ca         1 XQJ      -0.083000
      8 I07         35.2770    -5.0700     4.5360 i          1 XQJ      -0.320000
      9 H1          33.4330    -9.1120     0.4210 hc         1 XQJ       0.045033
     10 H2          31.7160    -9.0760     0.8570 hc         1 XQJ       0.045033
     11 H3          32.5310    -7.5880     0.3580 hc         1 XQJ       0.045033
     12 H4          32.0920   -10.0350     3.1430 ha         1 XQJ       0.115000
     13 H5          32.7220    -9.5840     5.5070 ha         1 XQJ       0.116000
     14 H6          34.0330    -7.5380     6.0810 ha         1 XQJ       0.127000
     15 H7          34.0870    -6.3930     1.9270 ha         1 XQJ       0.125000
@<TRIPOS>BOND
     1     1     2 1   
     2     1     9 1   
     3     1    10 1   
     4     1    11 1   
     5     2     3 ar  
     6     2     7 ar  
     7     3     4 ar  
     8     3    12 1   
     9     4     5 ar  
    10     4    13 1   
    11     5     6 ar  
    12     5    14 1   
    13     6     7 ar  
    14     6     8 1   
    15     7    15 1   
@<TRIPOS>SUBSTRUCTURE
     1 XQJ         1 TEMP              0 ****  ****    0 ROOT
