@<TRIPOS>MOLECULE
XQK
   24    25     1     0     0
SMALL
No Charge or Current Charge


@<TRIPOS>ATOM
      1 C1           3.9830     0.5940    -0.0970 cc         1 XQK       0.255900
      2 C4           1.8030     0.4910    -0.1490 cd         1 XQK       0.233500
      3 C5           2.8250     1.3850    -0.1600 cc         1 XQK      -0.228000
      4 C6           0.4050     0.8730    -0.2010 cd         1 XQK      -0.139500
      5 C9          -1.8050     1.0550    -0.2660 cc         1 XQK       0.312300
      6 C10         -0.7470     0.1030    -0.1990 cc         1 XQK      -0.224600
      7 C11         -0.8950    -1.3860    -0.1420 c          1 XQK       0.638700
      8 C13         -2.4330    -3.2530    -0.1060 c3         1 XQK       0.153900
      9 C15         -3.2810     0.7490    -0.2910 c3         1 XQK      -0.122400
     10 O14          0.0410    -2.1670    -0.0860 o          1 XQK      -0.482000
     11 O12         -2.1900    -1.8340    -0.1570 os         1 XQK      -0.438100
     12 N8          -1.3990     2.3100    -0.3060 nd         1 XQK      -0.516800
     13 N7          -0.0170     2.2040    -0.2660 na         1 XQK       0.019800
     14 NAF          3.7410    -0.7060    -0.0510 nd         1 XQK      -0.338300
     15 O3           2.2990    -0.7830    -0.0850 os         1 XQK      -0.031700
     16 H1           5.0090     0.9350    -0.0850 h4         1 XQK       0.049100
     17 H5           2.7930     2.4670    -0.2050 ha         1 XQK       0.156000
     18 H7           0.5800     3.0310    -0.2850 hn         1 XQK       0.384000
     19 H151        -3.5870     0.2150     0.6150 hc         1 XQK       0.057033
     20 H152        -3.8750     1.6680    -0.3440 hc         1 XQK       0.057033
     21 H153        -3.5410     0.1420    -1.1650 hc         1 XQK       0.057033
     22 H131        -3.5110    -3.4560    -0.1250 h1         1 XQK       0.048700
     23 H132        -1.9760    -3.7610    -0.9650 h1         1 XQK       0.048700
     24 H133        -2.0220    -3.6880     0.8150 h1         1 XQK       0.048700
@<TRIPOS>BOND
     1     1     3 1   
     2     1    14 2   
     3     1    16 1   
     4     2     3 2   
     5     2     4 1   
     6     2    15 1   
     7     3    17 1   
     8     4     6 2   
     9     4    13 1   
    10     5     6 1   
    11     5     9 1   
    12     5    12 2   
    13     6     7 1   
    14     7    10 2   
    15     7    11 1   
    16     8    11 1   
    17     8    22 1   
    18     8    23 1   
    19     8    24 1   
    20     9    19 1   
    21     9    20 1   
    22     9    21 1   
    23    12    13 1   
    24    13    18 1   
    25    14    15 1   
@<TRIPOS>SUBSTRUCTURE
     1 XQK         1 TEMP              0 ****  ****    0 ROOT
