@<TRIPOS>MOLECULE
XQK
   24    25     1     0     0
SMALL
bcc


@<TRIPOS>ATOM
      1 C1           3.9020     0.4180    -0.0660 cc         1 XQK       0.321200
      2 C4           1.7550     0.5820    -0.3130 cd         1 XQK       0.343200
      3 C5           2.7800     1.1710     0.3510 cc         1 XQK      -0.376600
      4 C6           0.3400     0.8890    -0.3650 cd         1 XQK      -0.088800
      5 C9          -1.8760     1.0430    -0.4020 cc         1 XQK       0.377600
      6 C10         -0.8090     0.1150    -0.2860 cc         1 XQK      -0.289900
      7 C11         -0.8370    -1.3240    -0.0360 c          1 XQK       0.687700
      8 C13         -2.2220    -3.2220     0.0940 c3         1 XQK       0.130700
      9 C15         -3.3460     0.8120    -0.3740 c3         1 XQK      -0.122400
     10 O14          0.1340    -1.9800     0.2580 o          1 XQK      -0.531000
     11 O12         -2.0570    -1.8260    -0.1540 os         1 XQK      -0.414900
     12 N8          -1.3990     2.2660    -0.5340 nd         1 XQK      -0.516800
     13 N7          -0.0780     2.1500    -0.5090 na         1 XQK       0.019400
     14 NAF          3.5640    -0.5200    -0.8990 nd         1 XQK      -0.338300
     15 O3           2.2210    -0.4190    -1.0620 os         1 XQK      -0.076100
     16 H1           4.9350     0.5340     0.2240 h4         1 XQK       0.049100
     17 H5           2.7440     1.9950     1.0420 ha         1 XQK       0.174000
     18 H7           0.5000     2.9680    -0.6370 hn         1 XQK       0.333700
     19 H151        -3.6590     0.3520     0.5630 hc         1 XQK       0.057033
     20 H152        -3.8700     1.7600    -0.4810 hc         1 XQK       0.057033
     21 H153        -3.6630     0.1540    -1.1810 hc         1 XQK       0.057033
     22 H131        -3.2780    -3.4260    -0.0560 h1         1 XQK       0.048700
     23 H132        -1.6360    -3.8230    -0.6000 h1         1 XQK       0.048700
     24 H133        -1.9460    -3.4800     1.1160 h1         1 XQK       0.048700
@<TRIPOS>BOND
     1     1     3 1   
     2     1    14 2   
     3     1    16 1   
     4     2     3 2   
     5     2     4 1   
     6     2    15 1   
     7     3    17 1   
     8     4     6 2   
     9     4    13 1   
    10     5     6 1   
    11     5     9 1   
    12     5    12 2   
    13     6     7 1   
    14     7    10 2   
    15     7    11 1   
    16     8    11 1   
    17     8    22 1   
    18     8    23 1   
    19     8    24 1   
    20     9    19 1   
    21     9    20 1   
    22     9    21 1   
    23    12    13 1   
    24    13    18 1   
    25    14    15 1   
@<TRIPOS>SUBSTRUCTURE
     1 XQK         1 TEMP              0 ****  ****    0 ROOT
