@<TRIPOS>MOLECULE
XQL
   58    61     1     0     0
SMALL
No Charge or Current Charge


@<TRIPOS>ATOM
      1 C5          -7.2950     9.1670     7.8030 ca         1 XQL       0.386500
      2 C7          -9.0050     7.6280     7.7600 ca         1 XQL       0.387900
      3 C8          -8.2800     6.7420     8.5730 ca         1 XQL      -0.278000
      4 C15         -7.7830     3.2470    12.2650 ca         1 XQL       0.060000
      5 C17         -9.1450     2.1670    14.1490 c          1 XQL       0.661100
      6 C20         -9.6120     1.0760    17.1530 c3         1 XQL       0.129600
      7 C22        -11.7340     1.1210    18.3740 c3         1 XQL       0.139900
      8 C24         -8.1120     4.6040    12.4690 ca         1 XQL      -0.222500
      9 C33         -1.0980    11.3560    11.4740 c3         1 XQL      -0.103100
     10 C34         -0.0020     9.6750     9.8810 c3         1 XQL      -0.103100
     11 N29         -2.3150     9.2700    10.7780 na         1 XQL       0.129800
     12 N28         -3.1020     9.7350     9.7410 nc         1 XQL      -0.533800
     13 C30         -2.9040     8.2370    11.4980 cc         1 XQL      -0.183000
     14 C31         -4.1030     8.0530    10.8740 cd         1 XQL      -0.197000
     15 C27         -4.1790     8.9680     9.8000 cd         1 XQL       0.336800
     16 C2          -5.2960     9.1360     8.8820 cd         1 XQL      -0.144000
     17 C1          -6.5360     8.3880     8.6530 ca         1 XQL      -0.142800
     18 C3          -5.3050    10.2920     8.1100 cc         1 XQL      -0.141100
     19 N4          -6.5630    10.2880     7.4800 na         1 XQL      -0.321400
     20 N6          -8.5160     8.8230     7.3580 nb         1 XQL      -0.702000
     21 C9          -7.0050     7.1170     9.0320 ca         1 XQL       0.216100
     22 O10         -6.2200     6.2210     9.7150 os         1 XQL      -0.198200
     23 C11         -6.7440     5.2550    10.5530 ca         1 XQL      -0.031900
     24 C25         -7.5950     5.5980    11.6220 ca         1 XQL       0.228000
     25 F26         -7.9130     6.8910    11.8600 f          1 XQL      -0.153500
     26 C12         -6.4040     3.9060    10.3600 ca         1 XQL       0.228000
     27 F13         -5.5800     3.5510     9.3490 f          1 XQL      -0.153500
     28 C14         -6.9220     2.9130    11.2050 ca         1 XQL      -0.222500
     29 O23         -9.7210     3.1400    14.6120 o          1 XQL      -0.613100
     30 N18         -9.3230     0.9000    14.6580 ns         1 XQL      -0.516900
     31 C19        -10.1860     0.5730    15.8040 c3         1 XQL       0.076000
     32 O21        -10.4070     0.5710    18.2490 os         1 XQL      -0.447000
     33 H1          -9.9920     7.3570     7.3880 h4         1 XQL       0.017100
     34 H2          -8.7030     5.7710     8.8110 ha         1 XQL       0.128000
     35 H3          -8.5800     0.7150    17.2490 h1         1 XQL       0.051200
     36 H4          -9.5820     2.1740    17.1640 h1         1 XQL       0.051200
     37 H5         -12.2170     0.7410    19.2830 h1         1 XQL       0.033033
     38 H6         -11.6980     2.2160    18.4410 h1         1 XQL       0.033033
     39 H7         -12.3630     0.8430    17.5200 h1         1 XQL       0.033033
     40 H8          -8.7600     4.9160    13.2810 ha         1 XQL       0.155000
     41 H9          -0.1150    11.7490    11.7590 hc         1 XQL       0.048700
     42 H10         -1.4890    11.9690    10.6530 hc         1 XQL       0.048700
     43 H11         -1.7700    11.4630    12.3340 hc         1 XQL       0.048700
     44 H12         -0.5740     9.3300    11.9120 h1         1 XQL       0.052700
     45 H13          0.9940    10.0490    10.1480 hc         1 XQL       0.048700
     46 H14          0.0900     8.6120     9.6310 hc         1 XQL       0.048700
     47 H15         -0.3420    10.2110     8.9870 hc         1 XQL       0.048700
     48 H16         -2.4500     7.7670    12.3610 h4         1 XQL       0.148000
     49 H17         -4.8620     7.3630    11.2060 ha         1 XQL       0.153000
     50 H18         -4.5870    11.1040     8.0150 h4         1 XQL       0.224000
     51 H19         -6.9100    11.0080     6.8600 hn         1 XQL       0.362000
     52 H20         -6.6470     1.8750    11.0300 ha         1 XQL       0.155000
     53 H21         -7.8930     1.2840    12.8300 hn         1 XQL       0.150000
     54 H22         -8.8120     0.1480    14.2110 hn         1 XQL       0.311500
     55 H23        -11.1750     1.0170    15.6300 h1         1 XQL       0.066700
     56 H24        -10.3060    -0.5170    15.8490 h1         1 XQL       0.066700
     57 N16         -8.2660     2.1890    13.0800 ns         1 XQL      -0.161000
     58 C32         -0.9900     9.8730    11.0530 c3         1 XQL       0.107300
@<TRIPOS>BOND
     1     1    17 ar  
     2     1    19 1   
     3     1    20 ar  
     4     2     3 ar  
     5     2    20 ar  
     6     2    33 1   
     7     3    21 ar  
     8     3    34 1   
     9     4     8 ar  
    10     4    28 ar  
    11     4    57 1   
    12     5    29 2   
    13     5    30 1   
    14     5    57 1   
    15     6    31 1   
    16     6    32 1   
    17     6    35 1   
    18     6    36 1   
    19     7    32 1   
    20     7    37 1   
    21     7    38 1   
    22     7    39 1   
    23     8    24 ar  
    24     8    40 1   
    25     9    41 1   
    26     9    42 1   
    27     9    43 1   
    28     9    58 1   
    29    10    45 1   
    30    10    46 1   
    31    10    47 1   
    32    10    58 1   
    33    11    12 1   
    34    11    13 1   
    35    11    58 1   
    36    12    15 2   
    37    13    14 2   
    38    13    48 1   
    39    14    15 1   
    40    14    49 1   
    41    15    16 1   
    42    16    17 1   
    43    16    18 2   
    44    17    21 ar  
    45    18    19 1   
    46    18    50 1   
    47    19    51 1   
    48    21    22 1   
    49    22    23 1   
    50    23    24 ar  
    51    23    26 ar  
    52    24    25 1   
    53    26    27 1   
    54    26    28 ar  
    55    28    52 1   
    56    30    31 1   
    57    30    54 1   
    58    31    55 1   
    59    31    56 1   
    60    44    58 1   
    61    53    57 1   
@<TRIPOS>SUBSTRUCTURE
     1 XQL         1 TEMP              0 ****  ****    0 ROOT
