@<TRIPOS>MOLECULE
XQL
   58    61     1     0     0
SMALL
abcg2


@<TRIPOS>ATOM
      1 C5          -6.9100     8.8460     7.2670 ca         1 XQL       0.386500
      2 C7          -8.5300     7.3210     7.1470 ca         1 XQL       0.387900
      3 C8          -8.1160     6.7140     8.3370 ca         1 XQL      -0.278000
      4 C15         -8.2220     3.4640    12.1110 ca         1 XQL       0.060000
      5 C17         -9.3390     2.2510    13.9680 c          1 XQL       0.661100
      6 C20         -9.0980     0.5730    16.6980 c3         1 XQL       0.129600
      7 C22        -10.2320     1.2410    18.6550 c3         1 XQL       0.139900
      8 C24         -8.4550     4.7710    12.5470 ca         1 XQL      -0.222500
      9 C33         -0.9270    11.1320    11.0550 c3         1 XQL      -0.103100
     10 C34         -0.4580     8.6500    10.9660 c3         1 XQL      -0.103100
     11 N29         -2.7420     9.4950    11.2430 na         1 XQL       0.129800
     12 N28         -3.1810     9.5120     9.9910 nc         1 XQL      -0.533800
     13 C30         -3.7090     9.1690    12.1180 cc         1 XQL      -0.183000
     14 C31         -4.8560     8.9680    11.3900 cd         1 XQL      -0.197000
     15 C27         -4.4700     9.1990    10.0550 cd         1 XQL       0.336800
     16 C2          -5.2960     9.2120     8.8540 cd         1 XQL      -0.144000
     17 C1          -6.3980     8.3670     8.4920 ca         1 XQL      -0.142800
     18 C3          -5.1870    10.1280     7.8410 cc         1 XQL      -0.141100
     19 N4          -6.1460     9.9050     6.8960 na         1 XQL      -0.321400
     20 N6          -7.9420     8.3640     6.5870 nb         1 XQL      -0.702000
     21 C9          -7.0190     7.2290     9.0080 ca         1 XQL       0.216100
     22 O10         -6.4810     6.6910    10.1260 os         1 XQL      -0.198200
     23 C11         -7.0900     5.6330    10.7290 ca         1 XQL      -0.031900
     24 C25         -7.8860     5.8130    11.8460 ca         1 XQL       0.228000
     25 F26         -8.1070     7.0640    12.2560 f          1 XQL      -0.153500
     26 C12         -6.8860     4.3260    10.3130 ca         1 XQL       0.228000
     27 F13         -6.1330     4.1220     9.2310 f          1 XQL      -0.153500
     28 C14         -7.4340     3.2520    10.9730 ca         1 XQL      -0.222500
     29 O23         -9.5880     3.2260    14.6600 o          1 XQL      -0.613100
     30 N18         -9.6460     0.9860    14.3340 ns         1 XQL      -0.516900
     31 C19        -10.1930     0.6800    15.6350 c3         1 XQL       0.076000
     32 O21         -9.5900     0.2000    17.9590 os         1 XQL      -0.447000
     33 H1          -9.3860     6.9110     6.6250 h4         1 XQL       0.017100
     34 H2          -8.6580     5.8520     8.7000 ha         1 XQL       0.128000
     35 H3          -8.3860    -0.1980    16.3950 h1         1 XQL       0.051200
     36 H4          -8.5480     1.5230    16.7530 h1         1 XQL       0.051200
     37 H5         -10.4490     0.8830    19.6610 h1         1 XQL       0.033033
     38 H6          -9.5940     2.1290    18.7360 h1         1 XQL       0.033033
     39 H7         -11.1770     1.5460    18.1940 h1         1 XQL       0.033033
     40 H8          -9.0660     4.9850    13.4080 ha         1 XQL       0.155000
     41 H9           0.1020    11.3320    11.3530 hc         1 XQL       0.048700
     42 H10         -0.9830    11.2020     9.9690 hc         1 XQL       0.048700
     43 H11         -1.5600    11.9080    11.4860 hc         1 XQL       0.048700
     44 H12         -1.2710     9.7240    12.6300 h1         1 XQL       0.052700
     45 H13          0.5770     8.8100    11.2670 hc         1 XQL       0.048700
     46 H14         -0.7670     7.6700    11.3280 hc         1 XQL       0.048700
     47 H15         -0.4970     8.6460     9.8770 hc         1 XQL       0.048700
     48 H16         -3.5170     9.1070    13.1780 h4         1 XQL       0.148000
     49 H17         -5.8310     8.7110    11.7680 ha         1 XQL       0.153000
     50 H18         -4.4960    10.9490     7.7420 h4         1 XQL       0.224000
     51 H19         -6.2840    10.4570     6.0640 hn         1 XQL       0.362000
     52 H20         -7.2380     2.2500    10.6090 ha         1 XQL       0.155000
     53 H21         -8.5590     1.4700    12.2430 hn         1 XQL       0.150000
     54 H22         -9.3180     0.2090    13.7810 hn         1 XQL       0.311500
     55 H23        -10.9310     1.4380    15.8980 h1         1 XQL       0.066700
     56 H24        -10.7240    -0.2690    15.5580 h1         1 XQL       0.066700
     57 N16         -8.7370     2.3370    12.7280 ns         1 XQL      -0.161000
     58 C32         -1.3390     9.7510    11.5400 c3         1 XQL       0.107300
@<TRIPOS>BOND
     1     1    17 ar  
     2     1    19 1   
     3     1    20 ar  
     4     2     3 ar  
     5     2    20 ar  
     6     2    33 1   
     7     3    21 ar  
     8     3    34 1   
     9     4     8 ar  
    10     4    28 ar  
    11     4    57 1   
    12     5    29 2   
    13     5    30 1   
    14     5    57 1   
    15     6    31 1   
    16     6    32 1   
    17     6    35 1   
    18     6    36 1   
    19     7    32 1   
    20     7    37 1   
    21     7    38 1   
    22     7    39 1   
    23     8    24 ar  
    24     8    40 1   
    25     9    41 1   
    26     9    42 1   
    27     9    43 1   
    28     9    58 1   
    29    10    45 1   
    30    10    46 1   
    31    10    47 1   
    32    10    58 1   
    33    11    12 1   
    34    11    13 1   
    35    11    58 1   
    36    12    15 2   
    37    13    14 2   
    38    13    48 1   
    39    14    15 1   
    40    14    49 1   
    41    15    16 1   
    42    16    17 1   
    43    16    18 2   
    44    17    21 ar  
    45    18    19 1   
    46    18    50 1   
    47    19    51 1   
    48    21    22 1   
    49    22    23 1   
    50    23    24 ar  
    51    23    26 ar  
    52    24    25 1   
    53    26    27 1   
    54    26    28 ar  
    55    28    52 1   
    56    30    31 1   
    57    30    54 1   
    58    31    55 1   
    59    31    56 1   
    60    44    58 1   
    61    53    57 1   
@<TRIPOS>SUBSTRUCTURE
     1 XQL         1 TEMP              0 ****  ****    0 ROOT
