@<TRIPOS>MOLECULE
XQM
   15    15     1     0     0
SMALL
No Charge or Current Charge


@<TRIPOS>ATOM
      1 C01         32.7720   -10.0160     1.7550 c3         1 XQM      -0.049800
      2 C02         33.3380    -8.8440     2.5420 ca         1 XQM      -0.058300
      3 C03         33.9080    -9.0520     3.8130 ca         1 XQM      -0.114000
      4 C04         34.4350    -7.9690     4.5390 ca         1 XQM      -0.077000
      5 C05         34.3930    -6.6740     3.9960 ca         1 XQM       0.193000
      6 C07         33.8290    -6.4600     2.7290 ca         1 XQM      -0.077000
      7 C08         33.3020    -7.5440     2.0020 ca         1 XQM      -0.114000
      8 I06         35.2040    -5.0060     5.1140 i          1 XQM      -0.319000
      9 H1          33.5430   -10.4680     1.1200 hc         1 XQM       0.045033
     10 H2          32.3860   -10.7970     2.4210 hc         1 XQM       0.045033
     11 H3          31.9460    -9.7010     1.1060 hc         1 XQM       0.045033
     12 H4          33.9450   -10.0530     4.2380 ha         1 XQM       0.115000
     13 H5          34.8740    -8.1300     5.5200 ha         1 XQM       0.126000
     14 H6          33.8000    -5.4570     2.3120 ha         1 XQM       0.126000
     15 H7          32.8670    -7.3710     1.0190 ha         1 XQM       0.115000
@<TRIPOS>BOND
     1     1     2 1   
     2     1     9 1   
     3     1    10 1   
     4     1    11 1   
     5     2     3 ar  
     6     2     7 ar  
     7     3     4 ar  
     8     3    12 1   
     9     4     5 ar  
    10     4    13 1   
    11     5     6 ar  
    12     5     8 1   
    13     6     7 ar  
    14     6    14 1   
    15     7    15 1   
@<TRIPOS>SUBSTRUCTURE
     1 XQM         1 TEMP              0 ****  ****    0 ROOT
