@<TRIPOS>MOLECULE
XQM
   15    15     1     0     0
SMALL
bcc


@<TRIPOS>ATOM
      1 C01         32.7820    -9.9960     1.7670 c3         1 XQM      -0.049800
      2 C02         33.3300    -8.8400     2.5490 ca         1 XQM      -0.058300
      3 C03         33.8990    -9.0280     3.8060 ca         1 XQM      -0.132000
      4 C04         34.4310    -7.9670     4.5270 ca         1 XQM      -0.095000
      5 C05         34.3920    -6.6930     3.9810 ca         1 XQM       0.055900
      6 C07         33.8330    -6.4730     2.7310 ca         1 XQM      -0.095000
      7 C08         33.3060    -7.5480     2.0280 ca         1 XQM      -0.132000
      8 I06         35.1810    -5.0710     5.0670 i          1 XQM      -0.181900
      9 H1          33.5530   -10.4350     1.1300 hc         1 XQM       0.045033
     10 H2          32.4160   -10.7860     2.4230 hc         1 XQM       0.045033
     11 H3          31.9640    -9.6870     1.1180 hc         1 XQM       0.045033
     12 H4          33.9280   -10.0200     4.2410 ha         1 XQM       0.133000
     13 H5          34.8640    -8.1460     5.5020 ha         1 XQM       0.144000
     14 H6          33.7960    -5.4820     2.3000 ha         1 XQM       0.144000
     15 H7          32.8660    -7.3700     1.0540 ha         1 XQM       0.133000
@<TRIPOS>BOND
     1     1     2 1   
     2     1     9 1   
     3     1    10 1   
     4     1    11 1   
     5     2     3 ar  
     6     2     7 ar  
     7     3     4 ar  
     8     3    12 1   
     9     4     5 ar  
    10     4    13 1   
    11     5     6 ar  
    12     5     8 1   
    13     6     7 ar  
    14     6    14 1   
    15     7    15 1   
@<TRIPOS>SUBSTRUCTURE
     1 XQM         1 TEMP              0 ****  ****    0 ROOT
