@<TRIPOS>MOLECULE
XQO
   45    45     1     0     0
SMALL
No Charge or Current Charge


@<TRIPOS>ATOM
      1 O13          0.4720     3.5960    -1.3830 o          1 XQO      -0.602100
      2 C12          0.0110     3.0410    -0.3950 c          1 XQO       0.608100
      3 N14         -1.3430     3.0070    -0.1420 ns         1 XQO      -0.507900
      4 C15         -2.3640     3.5630    -1.0310 c3         1 XQO       0.096300
      5 C11          0.8920     2.3910     0.6700 c3         1 XQO      -0.147400
      6 C3           1.5200     1.0780     0.1440 c5         1 XQO       0.144500
      7 C4           2.3750     0.2860     1.1850 c5         1 XQO       0.105300
      8 O21          3.6500     0.8770     1.4450 oh         1 XQO      -0.645000
      9 C5           2.5540    -1.1170     0.4930 c5         1 XQO       0.102300
     10 O20          3.9240    -1.3370     0.0960 oh         1 XQO      -0.660000
     11 C6           1.5750    -1.0370    -0.7440 c5         1 XQO       0.166500
     12 C18          1.0670    -2.4160    -1.2850 c3         1 XQO       0.169600
     13 O19          0.5910    -3.2940    -0.2450 oh         1 XQO      -0.670000
     14 N2           0.5800     0.0220    -0.3430 n3         1 XQO      -0.699600
     15 C1          -0.5090    -0.4010     0.5890 c3         1 XQO       0.166800
     16 C7          -1.7870    -0.8870    -0.1310 c3         1 XQO      -0.073400
     17 C8          -2.9270    -1.2450     0.8470 c3         1 XQO      -0.077400
     18 C9          -4.2120    -1.7160     0.1320 c3         1 XQO      -0.074400
     19 C10         -5.3500    -2.0710     1.1080 c3         1 XQO      -0.089100
     20 H14         -1.6400     2.5370     0.7040 hn         1 XQO       0.311500
     21 H111         1.7040     3.0870     0.9100 hc         1 XQO       0.064700
     22 H112         0.3160     2.2020     1.5820 hc         1 XQO       0.064700
     23 H151        -2.2040     4.6430    -1.1480 h1         1 XQO       0.038700
     24 H152        -2.3020     3.0760    -2.0130 h1         1 XQO       0.038700
     25 H153        -3.3580     3.3870    -0.6020 h1         1 XQO       0.038700
     26 H3           2.1770     1.3880    -0.6850 h1         1 XQO       0.087700
     27 H4           1.8120     0.1690     2.1220 h1         1 XQO       0.072700
     28 H21          4.2670     0.2480     0.9950 ho         1 XQO       0.454000
     29 H5           2.2310    -1.8980     1.1950 h1         1 XQO       0.063700
     30 H20          4.0060    -2.2860    -0.1510 ho         1 XQO       0.452000
     31 H6           2.1500    -0.6360    -1.5920 h1         1 XQO       0.082700
     32 H181         0.2840    -2.2360    -2.0330 h1         1 XQO       0.034200
     33 H182         1.9030    -2.8970    -1.8080 h1         1 XQO       0.034200
     34 H19          0.2750    -4.1130    -0.6850 ho         1 XQO       0.446000
     35 H11C        -0.1560    -1.1840     1.2730 h1         1 XQO       0.036700
     36 H12C        -0.8210     0.4370     1.2210 h1         1 XQO       0.036700
     37 H71C        -2.1300    -0.0950    -0.8080 hc         1 XQO       0.046200
     38 H72C        -1.5670    -1.7590    -0.7540 hc         1 XQO       0.046200
     39 H81C        -2.5820    -2.0350     1.5260 hc         1 XQO       0.034200
     40 H82C        -3.1600    -0.3690     1.4650 hc         1 XQO       0.034200
     41 H91C        -4.5590    -0.9280    -0.5490 hc         1 XQO       0.037200
     42 H92C        -3.9840    -2.5940    -0.4850 hc         1 XQO       0.037200
     43 H101        -5.0450    -2.8820     1.7800 hc         1 XQO       0.031367
     44 H102        -5.6260    -1.2010     1.7160 hc         1 XQO       0.031367
     45 H103        -6.2390    -2.3990     0.5560 hc         1 XQO       0.031367
@<TRIPOS>BOND
     1     1     2 2   
     2     2     3 1   
     3     2     5 1   
     4     3     4 1   
     5     3    20 1   
     6     4    23 1   
     7     4    24 1   
     8     4    25 1   
     9     5     6 1   
    10     5    21 1   
    11     5    22 1   
    12     6     7 1   
    13     6    14 1   
    14     6    26 1   
    15     7     8 1   
    16     7     9 1   
    17     7    27 1   
    18     8    28 1   
    19     9    10 1   
    20     9    11 1   
    21     9    29 1   
    22    10    30 1   
    23    11    12 1   
    24    11    14 1   
    25    11    31 1   
    26    12    13 1   
    27    12    32 1   
    28    12    33 1   
    29    13    34 1   
    30    14    15 1   
    31    15    16 1   
    32    15    35 1   
    33    15    36 1   
    34    16    17 1   
    35    16    37 1   
    36    16    38 1   
    37    17    18 1   
    38    17    39 1   
    39    17    40 1   
    40    18    19 1   
    41    18    41 1   
    42    18    42 1   
    43    19    43 1   
    44    19    44 1   
    45    19    45 1   
@<TRIPOS>SUBSTRUCTURE
     1 XQO         1 TEMP              0 ****  ****    0 ROOT
