@<TRIPOS>MOLECULE
XQO
   45    45     1     0     0
SMALL
abcg2


@<TRIPOS>ATOM
      1 O13          0.1890     3.0880    -1.4580 o          1 XQO      -0.602100
      2 C12         -0.1740     2.7420    -0.3400 c          1 XQO       0.608100
      3 N14         -1.4500     2.8330     0.0580 ns         1 XQO      -0.507900
      4 C15         -2.5040     3.2900    -0.8160 c3         1 XQO       0.096300
      5 C11          0.8000     2.1800     0.6750 c3         1 XQO      -0.147400
      6 C3           1.4960     0.9470     0.1230 c5         1 XQO       0.144500
      7 C4           2.4500     0.2380     1.0960 c5         1 XQO       0.105300
      8 O21          3.6390     0.9260     1.3700 oh         1 XQO      -0.645000
      9 C5           2.6490    -1.1530     0.4240 c5         1 XQO       0.102300
     10 O20          3.9370    -1.3110    -0.1300 oh         1 XQO      -0.660000
     11 C6           1.6130    -1.1380    -0.7200 c5         1 XQO       0.166500
     12 C18          1.1150    -2.4890    -1.1890 c3         1 XQO       0.169600
     13 O19          0.6280    -3.2790    -0.1280 oh         1 XQO      -0.670000
     14 N2           0.6240    -0.1200    -0.3640 n3         1 XQO      -0.699600
     15 C1          -0.4460    -0.5440     0.5440 c3         1 XQO       0.166800
     16 C7          -1.7510    -0.7950    -0.1980 c3         1 XQO      -0.073400
     17 C8          -2.8890    -1.1820     0.7370 c3         1 XQO      -0.077400
     18 C9          -4.2210    -1.3600     0.0180 c3         1 XQO      -0.074400
     19 C10         -5.3540    -1.7510     0.9560 c3         1 XQO      -0.089100
     20 H14         -1.7010     2.5180     0.9790 hn         1 XQO       0.311500
     21 H111         1.5670     2.9350     0.8630 hc         1 XQO       0.064700
     22 H112         0.3220     1.9850     1.6370 hc         1 XQO       0.064700
     23 H151        -2.3030     4.2900    -1.1990 h1         1 XQO       0.038700
     24 H152        -2.6420     2.6200    -1.6660 h1         1 XQO       0.038700
     25 H153        -3.4320     3.3210    -0.2510 h1         1 XQO       0.038700
     26 H3           2.0820     1.2800    -0.7440 h1         1 XQO       0.087700
     27 H4           1.9400     0.1090     2.0570 h1         1 XQO       0.072700
     28 H21          4.2270     0.8090     0.6140 ho         1 XQO       0.454000
     29 H5           2.4410    -1.9530     1.1410 h1         1 XQO       0.063700
     30 H20          4.5290    -1.6350     0.5550 ho         1 XQO       0.452000
     31 H6           2.1420    -0.7340    -1.5940 h1         1 XQO       0.082700
     32 H181         0.3510    -2.3250    -1.9580 h1         1 XQO       0.034200
     33 H182         1.9610    -2.9820    -1.6830 h1         1 XQO       0.034200
     34 H19          0.2440    -4.0760    -0.5030 ho         1 XQO       0.446000
     35 H11C        -0.1790    -1.4290     1.1250 h1         1 XQO       0.036700
     36 H12C        -0.6270     0.2380     1.2840 h1         1 XQO       0.036700
     37 H71C        -2.0190     0.1140    -0.7450 hc         1 XQO       0.046200
     38 H72C        -1.6150    -1.5790    -0.9490 hc         1 XQO       0.046200
     39 H81C        -2.6320    -2.1100     1.2600 hc         1 XQO       0.034200
     40 H82C        -3.0000    -0.4170     1.5140 hc         1 XQO       0.034200
     41 H91C        -4.4780    -0.4280    -0.4960 hc         1 XQO       0.037200
     42 H92C        -4.1120    -2.1170    -0.7640 hc         1 XQO       0.037200
     43 H101        -5.1490    -2.7020     1.4500 hc         1 XQO       0.031367
     44 H102        -5.4960    -1.0000     1.7360 hc         1 XQO       0.031367
     45 H103        -6.3000    -1.8530     0.4220 hc         1 XQO       0.031367
@<TRIPOS>BOND
     1     1     2 2   
     2     2     3 1   
     3     2     5 1   
     4     3     4 1   
     5     3    20 1   
     6     4    23 1   
     7     4    24 1   
     8     4    25 1   
     9     5     6 1   
    10     5    21 1   
    11     5    22 1   
    12     6     7 1   
    13     6    14 1   
    14     6    26 1   
    15     7     8 1   
    16     7     9 1   
    17     7    27 1   
    18     8    28 1   
    19     9    10 1   
    20     9    11 1   
    21     9    29 1   
    22    10    30 1   
    23    11    12 1   
    24    11    14 1   
    25    11    31 1   
    26    12    13 1   
    27    12    32 1   
    28    12    33 1   
    29    13    34 1   
    30    14    15 1   
    31    15    16 1   
    32    15    35 1   
    33    15    36 1   
    34    16    17 1   
    35    16    37 1   
    36    16    38 1   
    37    17    18 1   
    38    17    39 1   
    39    17    40 1   
    40    18    19 1   
    41    18    41 1   
    42    18    42 1   
    43    19    43 1   
    44    19    44 1   
    45    19    45 1   
@<TRIPOS>SUBSTRUCTURE
     1 XQO         1 TEMP              0 ****  ****    0 ROOT
