@<TRIPOS>MOLECULE
XQP
   56    58     1     0     0
SMALL
abcg2


@<TRIPOS>ATOM
      1 C1          32.3830     2.9980    16.4320 c          1 XQP       0.707000
      2 O1          31.4610     2.5380    17.1330 o          1 XQP      -0.706000
      3 C2          32.4690     6.1280    16.9210 ce         1 XQP       0.124800
      4 N2          30.7390     2.8650    14.6370 ns         1 XQP      -0.486900
      5 C3          31.1630     6.0920    17.2670 c2         1 XQP      -0.327400
      6 C5          31.9530     5.0320    14.8110 c6         1 XQP       0.455500
      7 C6          32.0040     3.4620    14.9750 c3         1 XQP       0.136400
      8 C7          33.2810     1.7210    13.9510 c3         1 XQP       0.179900
      9 C8          30.0710     3.0180    13.4860 c          1 XQP       0.617100
     10 C9          28.7130     2.3200    13.3950 c3         1 XQP      -0.251400
     11 C10         28.8980     0.9890    12.6980 ca         1 XQP      -0.010300
     12 C11         28.2820     0.7400    11.4750 ca         1 XQP      -0.069000
     13 C12         28.4320    -0.4710    10.8150 ca         1 XQP      -0.187500
     14 C13         29.2180    -1.4730    11.3750 ca         1 XQP       0.071100
     15 C14         29.8400    -1.2420    12.5990 ca         1 XQP      -0.187500
     16 C15         29.6750    -0.0280    13.2490 ca         1 XQP      -0.069000
     17 C16         27.8930     2.1010    14.6950 c          1 XQP       0.731000
     18 C18         28.4550     4.7950    18.9360 cc         1 XQP       0.512800
     19 C4          30.1710     5.5800    16.2630 c6         1 XQP       0.201800
     20 N1          32.8530     5.7620    15.6540 nu         1 XQP      -0.810200
     21 N3          27.5580     5.6560    18.5040 nd         1 XQP      -0.441000
     22 N4          26.5340     4.9300    18.0630 nd         1 XQP      -0.099000
     23 N5          26.7500     3.6840    18.2180 nc         1 XQP      -0.204800
     24 N6          27.9560     3.5650    18.7570 na         1 XQP      -0.035700
     25 O10         33.5780     3.1150    16.7370 o          1 XQP      -0.706000
     26 O2          30.6730     5.5640    14.9460 os         1 XQP      -0.453000
     27 O3          33.0230     3.0960    14.0770 os         1 XQP      -0.461000
     28 O5          29.3440    -2.6330    10.6950 oh         1 XQP      -0.571100
     29 O6          26.6730     2.2970    14.6020 o          1 XQP      -0.715000
     30 O7          28.5140     1.7020    15.7070 o          1 XQP      -0.715000
     31 O8          34.7650     6.5220    17.2410 o          1 XQP      -0.737000
     32 O9          33.4160     6.9920    18.9460 o          1 XQP      -0.737000
     33 S1          30.0040     5.1290    19.6370 ss         1 XQP      -0.444300
     34 H2          30.2400     2.3780    15.3830 hn         1 XQP       0.391500
     35 H4          32.2420     5.2160    13.7740 h2         1 XQP       0.069700
     36 H5          34.1050     1.6160    13.2450 h1         1 XQP       0.003033
     37 H6          33.5840     1.2540    14.8930 h1         1 XQP       0.003033
     38 H7          32.4240     1.1670    13.5560 h1         1 XQP       0.003033
     39 H8          28.1180     2.9500    12.7310 hc         1 XQP       0.059700
     40 H9          27.6700     1.5100    11.0210 ha         1 XQP       0.131500
     41 H10         27.9420    -0.6380     9.8640 ha         1 XQP       0.087000
     42 H11         30.4560    -2.0120    13.0510 ha         1 XQP       0.087000
     43 H12         30.1680     0.1240    14.2000 ha         1 XQP       0.131500
     44 H15         28.0740     1.5360    18.4250 h1         1 XQP       0.074700
     45 H16         29.6010     2.3100    18.8670 h1         1 XQP       0.074700
     46 H17         28.3610     2.0270    20.1120 h1         1 XQP       0.074700
     47 H18         29.2900     6.2290    16.2410 h1         1 XQP       0.045700
     48 H19         29.8120     4.5790    16.5440 h1         1 XQP       0.045700
     49 H20         29.9190    -3.2430    11.1730 ho         1 XQP       0.439000
     50 H3          33.8360     5.5550    15.5720 hn         1 XQP       0.512000
     51 C17         30.5880     6.5300    18.5590 c3         1 XQP       0.213800
     52 O4          30.4880     3.6280    12.5090 o          1 XQP      -0.692100
     53 C19         28.5340     2.2770    19.0680 c3         1 XQP       0.060900
     54 H13         31.3240     7.0320    19.1770 h1         1 XQP       0.073200
     55 H14         29.7210     7.1800    18.4320 h1         1 XQP       0.073200
     56 C20         33.6500     6.5950    17.7900 c          1 XQP       0.724200
@<TRIPOS>BOND
     1     1     2 1   
     2     1     7 1   
     3     1    25 1   
     4     3     5 2   
     5     3    20 1   
     6     3    56 1   
     7     4     7 1   
     8     4     9 1   
     9     4    34 1   
    10     5    19 1   
    11     5    51 1   
    12     6     7 1   
    13     6    20 1   
    14     6    26 1   
    15     6    35 1   
    16     7    27 1   
    17     8    27 1   
    18     8    36 1   
    19     8    37 1   
    20     8    38 1   
    21     9    10 1   
    22     9    52 2   
    23    10    11 1   
    24    10    17 1   
    25    10    39 1   
    26    11    12 ar  
    27    11    16 ar  
    28    12    13 ar  
    29    12    40 1   
    30    13    14 ar  
    31    13    41 1   
    32    14    15 ar  
    33    14    28 1   
    34    15    16 ar  
    35    15    42 1   
    36    16    43 1   
    37    17    29 1   
    38    17    30 1   
    39    18    21 2   
    40    18    24 1   
    41    18    33 1   
    42    19    26 1   
    43    19    47 1   
    44    19    48 1   
    45    20    50 1   
    46    21    22 1   
    47    22    23 2   
    48    23    24 1   
    49    24    53 1   
    50    28    49 1   
    51    31    56 1   
    52    32    56 1   
    53    33    51 1   
    54    44    53 1   
    55    45    53 1   
    56    46    53 1   
    57    51    54 1   
    58    51    55 1   
@<TRIPOS>SUBSTRUCTURE
     1 XQP         1 TEMP              0 ****  ****    0 ROOT
