@<TRIPOS>MOLECULE
XQP
   56    58     1     0     0
SMALL
No Charge or Current Charge


@<TRIPOS>ATOM
      1 C1          31.4830     2.9360    16.3880 c          1 XQP       0.707000
      2 O1          30.3870     2.5300    16.7630 o          1 XQP      -0.706000
      3 C2          32.3420     6.1590    17.0190 ce         1 XQP       0.124800
      4 N2          30.4160     2.9770    14.1390 ns         1 XQP      -0.486900
      5 C3          31.0190     6.2570    17.3400 c2         1 XQP      -0.327400
      6 C5          31.7260     5.0400    14.8250 c6         1 XQP       0.455500
      7 C6          31.6110     3.4500    14.8820 c3         1 XQP       0.136400
      8 C7          32.9440     1.5230    14.0790 c3         1 XQP       0.179900
      9 C8          30.1040     3.2260    12.8260 c          1 XQP       0.617100
     10 C9          28.8210     2.5900    12.3120 c3         1 XQP      -0.251400
     11 C10         28.9800     1.0860    12.0400 ca         1 XQP      -0.010300
     12 C11         28.8600     0.6060    10.7170 ca         1 XQP      -0.069000
     13 C12         29.0140    -0.7620    10.4340 ca         1 XQP      -0.187500
     14 C13         29.2910    -1.6670    11.4680 ca         1 XQP       0.071100
     15 C14         29.4140    -1.2070    12.7860 ca         1 XQP      -0.187500
     16 C15         29.2590     0.1610    13.0720 ca         1 XQP      -0.069000
     17 C16         27.6500     2.9310    13.2250 c          1 XQP       0.731000
     18 C18         28.9940     4.4730    19.3700 cc         1 XQP       0.512800
     19 C4          29.9490     5.7910    16.3560 c6         1 XQP       0.201800
     20 N1          32.6940     5.6160    15.7550 nu         1 XQP      -0.810200
     21 N3          27.8720     5.0010    18.9410 nd         1 XQP      -0.441000
     22 N4          26.9760     3.9530    18.9180 nd         1 XQP      -0.099000
     23 N5          27.5010     2.8430    19.3860 nc         1 XQP      -0.204800
     24 N6          28.7830     3.1680    19.7000 na         1 XQP      -0.035700
     25 O10         32.5000     2.7050    17.0380 o          1 XQP      -0.706000
     26 O2          30.4620     5.7190    15.0150 os         1 XQP      -0.453000
     27 O3          32.8490     2.9500    14.2760 os         1 XQP      -0.461000
     28 O5          29.4400    -2.9900    11.1890 oh         1 XQP      -0.571100
     29 O6          26.7460     3.6090    12.7630 o          1 XQP      -0.715000
     30 O7          27.6450     2.4840    14.3610 o          1 XQP      -0.715000
     31 O8          34.6860     6.3580    17.4820 o          1 XQP      -0.737000
     32 O9          33.3850     7.0930    19.0090 o          1 XQP      -0.737000
     33 S1          30.4180     5.3790    19.8700 ss         1 XQP      -0.444300
     34 H2          29.6880     2.5230    14.6860 hn         1 XQP       0.391500
     35 H4          32.0580     5.2730    13.8020 h2         1 XQP       0.069700
     36 H5          33.9350     1.2630    13.6870 h1         1 XQP       0.003033
     37 H6          32.7980     0.9780    15.0190 h1         1 XQP       0.003033
     38 H7          32.1960     1.1740    13.3550 h1         1 XQP       0.003033
     39 H8          28.6220     3.0770    11.3500 hc         1 XQP       0.059700
     40 H9          28.6480     1.2950     9.9020 ha         1 XQP       0.131500
     41 H10         28.9190    -1.1170     9.4110 ha         1 XQP       0.087000
     42 H11         29.6280    -1.9020    13.5940 ha         1 XQP       0.087000
     43 H12         29.3550     0.4920    14.1030 ha         1 XQP       0.131500
     44 H15         29.2930     1.1910    20.2470 h1         1 XQP       0.074700
     45 H16         30.6580     2.2100    19.7050 h1         1 XQP       0.074700
     46 H17         29.9340     2.4710    21.3200 h1         1 XQP       0.074700
     47 H18         29.1020     6.4930    16.3560 h1         1 XQP       0.045700
     48 H19         29.5500     4.8130    16.6470 h1         1 XQP       0.045700
     49 H20         29.6270    -3.4620    12.0290 ho         1 XQP       0.439000
     50 H3          33.6820     5.3940    15.6230 hn         1 XQP       0.512000
     51 C17         30.4370     6.7700    18.6500 c3         1 XQP       0.213800
     52 O4          30.8130     3.9090    12.0980 o          1 XQP      -0.692100
     53 C19         29.7230     2.1990    20.2790 c3         1 XQP       0.060900
     54 H13         31.0280     7.6030    19.0480 h1         1 XQP       0.073200
     55 H14         29.4160     7.1520    18.5120 h1         1 XQP       0.073200
     56 C20         33.5550     6.5610    17.9180 c          1 XQP       0.724200
@<TRIPOS>BOND
     1     1     2 1   
     2     1     7 1   
     3     1    25 1   
     4     3     5 2   
     5     3    20 1   
     6     3    56 1   
     7     4     7 1   
     8     4     9 1   
     9     4    34 1   
    10     5    19 1   
    11     5    51 1   
    12     6     7 1   
    13     6    20 1   
    14     6    26 1   
    15     6    35 1   
    16     7    27 1   
    17     8    27 1   
    18     8    36 1   
    19     8    37 1   
    20     8    38 1   
    21     9    10 1   
    22     9    52 2   
    23    10    11 1   
    24    10    17 1   
    25    10    39 1   
    26    11    12 ar  
    27    11    16 ar  
    28    12    13 ar  
    29    12    40 1   
    30    13    14 ar  
    31    13    41 1   
    32    14    15 ar  
    33    14    28 1   
    34    15    16 ar  
    35    15    42 1   
    36    16    43 1   
    37    17    29 1   
    38    17    30 1   
    39    18    21 2   
    40    18    24 1   
    41    18    33 1   
    42    19    26 1   
    43    19    47 1   
    44    19    48 1   
    45    20    50 1   
    46    21    22 1   
    47    22    23 2   
    48    23    24 1   
    49    24    53 1   
    50    28    49 1   
    51    31    56 1   
    52    32    56 1   
    53    33    51 1   
    54    44    53 1   
    55    45    53 1   
    56    46    53 1   
    57    51    54 1   
    58    51    55 1   
@<TRIPOS>SUBSTRUCTURE
     1 XQP         1 TEMP              0 ****  ****    0 ROOT
