@<TRIPOS>MOLECULE
XQS
   50    51     1     0     0
SMALL
No Charge or Current Charge


@<TRIPOS>ATOM
      1 C10         54.8290   112.5920    72.4410 c6         1 XQS       0.180300
      2 C11         54.7350   112.1170    73.9110 c6         1 XQS      -0.104400
      3 C12         54.0470   111.6050    71.5290 c6         1 XQS      -0.104400
      4 C13         53.2620   111.9220    74.3440 c6         1 XQS       0.103000
      5 C14         52.5880   111.4320    72.0120 c6         1 XQS       0.103000
      6 C16         51.3480   108.7690    72.8880 c3         1 XQS       0.036700
      7 C18         49.9310   109.3550    72.6600 c3         1 XQS      -0.101100
      8 C22         51.1550   104.8710    74.8390 ca         1 XQS      -0.081000
      9 C23         50.5800   103.7630    72.7600 ca         1 XQS      -0.081000
     10 C24         51.1060   103.6340    75.5060 ca         1 XQS      -0.090500
     11 C26         50.8130   102.4390    74.8110 ca         1 XQS      -0.132900
     12 C27         50.7340   101.1310    75.5460 ce         1 XQS       0.664800
     13 O01         54.3230   113.9480    72.3450 os         1 XQS      -0.470000
     14 O03         56.1690   115.4970    69.5990 o          1 XQS      -0.732500
     15 O04         50.7050   106.3380    71.4940 o          1 XQS      -0.595100
     16 O05         56.8550   114.9330    71.5550 o          1 XQS      -0.732500
     17 N06         52.5550   110.9820    73.4320 n          1 XQS      -0.397800
     18 N07         51.2610   107.3930    73.4240 ns         1 XQS      -0.480900
     19 N08         50.8880    99.9900    74.8400 nv         1 XQS      -1.090200
     20 N09         50.6290   101.0420    76.8070 n2         1 XQS      -0.833100
     21 C21         50.8960   104.9540    73.4510 ca         1 XQS      -0.121600
     22 C25         50.5320   102.5280    73.4280 ca         1 XQS      -0.090500
     23 H101        55.8880   112.5890    72.1430 h1         1 XQS       0.073700
     24 H111        55.2780   111.1700    74.0280 hc         1 XQS       0.054200
     25 H112        55.2280   112.8420    74.5730 hc         1 XQS       0.054200
     26 H121        54.0650   111.9300    70.4810 hc         1 XQS       0.054200
     27 H122        54.5480   110.6280    71.5450 hc         1 XQS       0.054200
     28 H131        53.2270   111.5670    75.3830 h1         1 XQS       0.050200
     29 H132        52.7430   112.8920    74.3230 h1         1 XQS       0.050200
     30 H141        52.0600   112.3930    71.9320 h1         1 XQS       0.050200
     31 H142        52.0730   110.7310    71.3450 h1         1 XQS       0.050200
     32 H161        51.8740   108.7180    71.9260 h1         1 XQS       0.086700
     33 H171        53.9210   115.6070    71.1390 h1         1 XQS       0.022200
     34 H172        54.0710   114.0980    70.2500 h1         1 XQS       0.022200
     35 H182        49.9760   110.3710    72.2530 hc         1 XQS       0.047033
     36 H181        49.3620   108.7370    71.9560 hc         1 XQS       0.047033
     37 H183        49.3770   109.3940    73.6050 hc         1 XQS       0.047033
     38 H221        51.3940   105.7560    75.4240 ha         1 XQS       0.129000
     39 H231        50.3620   103.7920    71.6940 ha         1 XQS       0.129000
     40 H241        51.3070   103.6070    76.5750 ha         1 XQS       0.125500
     41 H071        51.4760   107.2590    74.4050 hn         1 XQS       0.315500
     42 H081        51.2740   100.1160    73.9110 hn         1 XQS       0.467500
     43 H091        50.3900   100.0720    77.0370 hn         1 XQS       0.364400
     44 H251        50.2620   101.6410    72.8590 ha         1 XQS       0.125500
     45 H082        51.2580    99.1980    75.3510 hn         1 XQS       0.467500
     46 C15         52.2110   109.6670    73.8360 c          1 XQS       0.587100
     47 C17         54.4880   114.6690    71.0880 c3         1 XQS       0.012600
     48 C19         50.9380   106.2680    72.6940 c          1 XQS       0.608700
     49 C20         55.9630   115.0640    70.7250 c          1 XQS       0.691000
     50 O02         52.5410   109.2570    74.9470 o          1 XQS      -0.635100
@<TRIPOS>BOND
     1     1     2 1   
     2     1     3 1   
     3     1    13 1   
     4     1    23 1   
     5     2     4 1   
     6     2    24 1   
     7     2    25 1   
     8     3     5 1   
     9     3    26 1   
    10     3    27 1   
    11     4    17 1   
    12     4    28 1   
    13     4    29 1   
    14     5    17 1   
    15     5    30 1   
    16     5    31 1   
    17     6     7 1   
    18     6    18 1   
    19     6    32 1   
    20     6    46 1   
    21     7    35 1   
    22     7    36 1   
    23     7    37 1   
    24     8    10 ar  
    25     8    21 ar  
    26     8    38 1   
    27     9    21 ar  
    28     9    22 ar  
    29     9    39 1   
    30    10    11 ar  
    31    10    40 1   
    32    11    12 1   
    33    11    22 ar  
    34    12    19 1   
    35    12    20 2   
    36    13    47 1   
    37    14    49 1   
    38    15    48 2   
    39    16    49 1   
    40    17    46 1   
    41    18    41 1   
    42    18    48 1   
    43    19    42 1   
    44    19    45 1   
    45    20    43 1   
    46    21    48 1   
    47    22    44 1   
    48    33    47 1   
    49    34    47 1   
    50    46    50 2   
    51    47    49 1   
@<TRIPOS>SUBSTRUCTURE
     1 XQS         1 TEMP              0 ****  ****    0 ROOT
