@<TRIPOS>MOLECULE
XQS
   50    51     1     0     0
SMALL
abcg2


@<TRIPOS>ATOM
      1 C10         54.6550   112.1760    71.6950 c6         1 XQS       0.180300
      2 C11         55.1710   111.3970    72.8990 c6         1 XQS      -0.104400
      3 C12         53.3780   111.5220    71.1620 c6         1 XQS      -0.104400
      4 C13         54.0930   111.2250    73.9660 c6         1 XQS       0.103000
      5 C14         52.3330   111.3580    72.2620 c6         1 XQS       0.103000
      6 C16         51.0060   109.0020    73.4110 c3         1 XQS       0.036700
      7 C18         49.8510   109.8310    73.9740 c3         1 XQS      -0.101100
      8 C22         49.9910   104.8660    74.2110 ca         1 XQS      -0.081000
      9 C23         52.2250   104.2700    73.5490 ca         1 XQS      -0.081000
     10 C24         49.7680   103.5630    74.6270 ca         1 XQS      -0.090500
     11 C26         50.7740   102.6020    74.5260 ca         1 XQS      -0.132900
     12 C27         50.5060   101.2060    74.9820 ce         1 XQS       0.664800
     13 O01         54.4000   113.5160    72.1290 os         1 XQS      -0.470000
     14 O03         55.6380   115.8170    69.6380 o          1 XQS      -0.732500
     15 O04         52.3280   106.8290    72.2790 o          1 XQS      -0.595100
     16 O05         56.7740   114.5760    71.1270 o          1 XQS      -0.732500
     17 N06         52.8860   110.6150    73.3980 n          1 XQS      -0.397800
     18 N07         50.8110   107.6120    73.7610 ns         1 XQS      -0.480900
     19 N08         51.6010   100.5050    75.4070 nv         1 XQS      -1.090200
     20 N09         49.3060   100.7450    74.9070 n2         1 XQS      -0.833100
     21 C21         51.2240   105.2330    73.6670 ca         1 XQS      -0.121600
     22 C25         52.0090   102.9710    73.9870 ca         1 XQS      -0.090500
     23 H101        55.4210   112.1930    70.9140 h1         1 XQS       0.073700
     24 H111        55.5080   110.4130    72.5620 hc         1 XQS       0.054200
     25 H112        56.0280   111.9160    73.3310 hc         1 XQS       0.054200
     26 H121        52.9520   112.1200    70.3540 hc         1 XQS       0.054200
     27 H122        53.6290   110.5430    70.7460 hc         1 XQS       0.054200
     28 H131        54.4420   110.5930    74.7750 h1         1 XQS       0.050200
     29 H132        53.8210   112.1990    74.3820 h1         1 XQS       0.050200
     30 H141        52.0160   112.3410    72.6200 h1         1 XQS       0.050200
     31 H142        51.4570   110.8590    71.8670 h1         1 XQS       0.050200
     32 H161        51.0150   109.0560    72.3250 h1         1 XQS       0.086700
     33 H171        53.8170   115.3400    71.4910 h1         1 XQS       0.022200
     34 H172        53.7890   114.1120    70.2320 h1         1 XQS       0.022200
     35 H182        49.9650   110.8820    73.7140 hc         1 XQS       0.047033
     36 H181        48.9040   109.4730    73.5710 hc         1 XQS       0.047033
     37 H183        49.8240   109.7480    75.0620 hc         1 XQS       0.047033
     38 H221        49.1890   105.5880    74.2920 ha         1 XQS       0.129000
     39 H231        53.1760   104.5470    73.1140 ha         1 XQS       0.129000
     40 H241        48.8080   103.2810    75.0370 ha         1 XQS       0.125500
     41 H071        50.2910   107.4120    74.6000 hn         1 XQS       0.315500
     42 H081        52.4110   101.0080    75.7310 hn         1 XQS       0.467500
     43 H091        49.2600    99.7950    75.2760 hn         1 XQS       0.364400
     44 H251        52.7990   102.2400    73.8830 ha         1 XQS       0.125500
     45 H082        51.4490    99.6080    75.8420 hn         1 XQS       0.467500
     46 C15         52.3470   109.5200    73.9720 c          1 XQS       0.587100
     47 C17         54.3580   114.4790    71.0920 c3         1 XQS       0.012600
     48 C19         51.5080   106.6180    73.1760 c          1 XQS       0.608700
     49 C20         55.7260   114.9880    70.5810 c          1 XQS       0.691000
     50 O02         52.8570   108.9560    74.9430 o          1 XQS      -0.635100
@<TRIPOS>BOND
     1     1     2 1   
     2     1     3 1   
     3     1    13 1   
     4     1    23 1   
     5     2     4 1   
     6     2    24 1   
     7     2    25 1   
     8     3     5 1   
     9     3    26 1   
    10     3    27 1   
    11     4    17 1   
    12     4    28 1   
    13     4    29 1   
    14     5    17 1   
    15     5    30 1   
    16     5    31 1   
    17     6     7 1   
    18     6    18 1   
    19     6    32 1   
    20     6    46 1   
    21     7    35 1   
    22     7    36 1   
    23     7    37 1   
    24     8    10 ar  
    25     8    21 ar  
    26     8    38 1   
    27     9    21 ar  
    28     9    22 ar  
    29     9    39 1   
    30    10    11 ar  
    31    10    40 1   
    32    11    12 1   
    33    11    22 ar  
    34    12    19 1   
    35    12    20 2   
    36    13    47 1   
    37    14    49 1   
    38    15    48 2   
    39    16    49 1   
    40    17    46 1   
    41    18    41 1   
    42    18    48 1   
    43    19    42 1   
    44    19    45 1   
    45    20    43 1   
    46    21    48 1   
    47    22    44 1   
    48    33    47 1   
    49    34    47 1   
    50    46    50 2   
    51    47    49 1   
@<TRIPOS>SUBSTRUCTURE
     1 XQS         1 TEMP              0 ****  ****    0 ROOT
