@<TRIPOS>MOLECULE
XQU
   33    33     1     0     0
SMALL
abcg2


@<TRIPOS>ATOM
      1 C1           6.2840   -21.0340     0.8170 c3         1 XQU       0.223300
      2 C2           5.3600   -21.1990    -0.4010 c          1 XQU       0.609100
      3 C3           3.1000   -21.9260    -1.0520 c3         1 XQU       0.074700
      4 C4           1.8400   -21.1300    -0.7460 c3         1 XQU       0.148600
      5 C5           2.8320   -23.4480    -1.1160 c3         1 XQU       0.210600
      6 C6           4.0740   -24.1910    -1.5370 ca         1 XQU      -0.111300
      7 C10          6.1730   -25.2760    -1.0150 ca         1 XQU      -0.130000
      8 C11          4.9980   -24.6640    -0.6060 ca         1 XQU      -0.066000
      9 C7           4.3600   -24.3530    -2.8900 ca         1 XQU      -0.066000
     10 C8           5.5390   -24.9510    -3.3160 ca         1 XQU      -0.130000
     11 C9           6.4610   -25.4140    -2.3760 ca         1 XQU       0.235000
     12 N2           4.1380   -21.6380    -0.0760 ns         1 XQU      -0.481900
     13 O2           5.7460   -20.9280    -1.5280 o          1 XQU      -0.549100
     14 O4           2.1310   -19.7460    -0.9300 oh         1 XQU      -0.648000
     15 O5           2.3990   -23.9420     0.1550 oh         1 XQU      -0.665000
     16 N9           7.7100   -25.9390    -2.7540 nu         1 XQU      -0.653700
     17 O9B          7.6720   -26.6370    -3.9960 oh         1 XQU      -0.465300
     18 CL1          7.7760   -21.9840     0.5700 cl         1 XQU      -0.206000
     19 CL2          6.6510   -19.2950     1.0360 cl         1 XQU      -0.206000
     20 H11          5.8410   -21.3780     1.7440 h2         1 XQU       0.089700
     21 H31          3.4790   -21.6110    -2.0230 h1         1 XQU       0.109700
     22 H41          1.0470   -21.4560    -1.4280 h1         1 XQU       0.024200
     23 H42          1.5130   -21.3190     0.2810 h1         1 XQU       0.024200
     24 H51          2.0510   -23.6070    -1.8650 h1         1 XQU       0.045700
     25 H101         6.8780   -25.6430    -0.2780 ha         1 XQU       0.122000
     26 H111         4.7950   -24.5610     0.4520 ha         1 XQU       0.115500
     27 H71          3.6510   -24.0000    -3.6310 ha         1 XQU       0.115500
     28 H81          5.7440   -25.0660    -4.3700 ha         1 XQU       0.122000
     29 H21          3.9420   -21.8840     0.8830 hn         1 XQU       0.319500
     30 H43          1.3920   -19.2310    -0.5870 ho         1 XQU       0.445000
     31 H52          1.4810   -23.6810     0.2950 ho         1 XQU       0.443000
     32 H91          8.0650   -26.5980    -2.0680 hn         1 XQU       0.441000
     33 H9B1         8.2700   -26.1360    -4.5670 ho         1 XQU       0.461000
@<TRIPOS>BOND
     1     1     2 1   
     2     1    18 1   
     3     1    19 1   
     4     1    20 1   
     5     2    12 1   
     6     2    13 2   
     7     3     4 1   
     8     3     5 1   
     9     3    12 1   
    10     3    21 1   
    11     4    14 1   
    12     4    22 1   
    13     4    23 1   
    14     5     6 1   
    15     5    15 1   
    16     5    24 1   
    17     6     8 ar  
    18     6     9 ar  
    19     7     8 ar  
    20     7    11 ar  
    21     7    25 1   
    22     8    26 1   
    23     9    10 ar  
    24     9    27 1   
    25    10    11 ar  
    26    10    28 1   
    27    11    16 1   
    28    12    29 1   
    29    14    30 1   
    30    15    31 1   
    31    16    17 1   
    32    16    32 1   
    33    17    33 1   
@<TRIPOS>SUBSTRUCTURE
     1 XQU         1 TEMP              0 ****  ****    0 ROOT
