@<TRIPOS>MOLECULE
XQU
   33    33     1     0     0
SMALL
No Charge or Current Charge


@<TRIPOS>ATOM
      1 C1           6.2710   -20.8640     0.9930 c3         1 XQU       0.223300
      2 C2           5.3690   -21.0930    -0.2450 c          1 XQU       0.609100
      3 C3           3.0760   -21.9040    -0.9840 c3         1 XQU       0.074700
      4 C4           1.7510   -21.1350    -0.7330 c3         1 XQU       0.148600
      5 C5           2.8660   -23.4440    -1.1110 c3         1 XQU       0.210600
      6 C6           4.1400   -24.1520    -1.5850 ca         1 XQU      -0.111300
      7 C10          6.3060   -25.1970    -1.1380 ca         1 XQU      -0.130000
      8 C11          5.1360   -24.5700    -0.6760 ca         1 XQU      -0.066000
      9 C7           4.3420   -24.3720    -2.9630 ca         1 XQU      -0.066000
     10 C8           5.5130   -25.0010    -3.4210 ca         1 XQU      -0.130000
     11 C9           6.5020   -25.4230    -2.5110 ca         1 XQU       0.235000
     12 N2           4.0980   -21.5690     0.0320 ns         1 XQU      -0.481900
     13 O2           5.7440   -20.8850    -1.3940 o          1 XQU      -0.549100
     14 O4           1.9720   -19.7160    -0.7560 oh         1 XQU      -0.648000
     15 O5           2.4200   -24.0040     0.1370 oh         1 XQU      -0.665000
     16 N9           7.6870   -26.0450    -2.9450 nu         1 XQU      -0.653700
     17 O9B          7.5970   -26.8770    -4.1420 oh         1 XQU      -0.465300
     18 Cl1          7.3060   -22.3200     1.3560 cl         1 XQU      -0.206000
     19 Cl2          7.3520   -19.4030     0.8240 cl         1 XQU      -0.206000
     20 H11          5.6450   -20.6890     1.8730 h2         1 XQU       0.089700
     21 H31          3.4380   -21.5650    -1.9640 h1         1 XQU       0.109700
     22 H41          1.0250   -21.4130    -1.5090 h1         1 XQU       0.024200
     23 H42          1.3330   -21.4350     0.2370 h1         1 XQU       0.024200
     24 H51          2.0940   -23.6110    -1.8750 h1         1 XQU       0.045700
     25 H101         7.0630   -25.5060    -0.4220 ha         1 XQU       0.122000
     26 H111         5.0080   -24.4060     0.3910 ha         1 XQU       0.115500
     27 H71          3.5930   -24.0490    -3.6830 ha         1 XQU       0.115500
     28 H81          5.6510   -25.1530    -4.4880 ha         1 XQU       0.122000
     29 H21          3.8700   -21.7400     1.0050 hn         1 XQU       0.319500
     30 H43          1.1070   -19.2860    -0.5740 ho         1 XQU       0.445000
     31 H52          1.4640   -23.8000     0.2240 ho         1 XQU       0.443000
     32 H91          8.2310   -26.5170    -2.2090 hn         1 XQU       0.441000
     33 H9B1         8.4220   -26.7190    -4.6690 ho         1 XQU       0.461000
@<TRIPOS>BOND
     1     1     2 1   
     2     1    18 1   
     3     1    19 1   
     4     1    20 1   
     5     2    12 1   
     6     2    13 2   
     7     3     4 1   
     8     3     5 1   
     9     3    12 1   
    10     3    21 1   
    11     4    14 1   
    12     4    22 1   
    13     4    23 1   
    14     5     6 1   
    15     5    15 1   
    16     5    24 1   
    17     6     8 ar  
    18     6     9 ar  
    19     7     8 ar  
    20     7    11 ar  
    21     7    25 1   
    22     8    26 1   
    23     9    10 ar  
    24     9    27 1   
    25    10    11 ar  
    26    10    28 1   
    27    11    16 1   
    28    12    29 1   
    29    14    30 1   
    30    15    31 1   
    31    16    17 1   
    32    16    32 1   
    33    17    33 1   
@<TRIPOS>SUBSTRUCTURE
     1 XQU         1 TEMP              0 ****  ****    0 ROOT
