@<TRIPOS>MOLECULE
XQV
   46    49     1     0     0
SMALL
bcc


@<TRIPOS>ATOM
      1 C10        -37.7510    12.6630     7.7250 ca         1 XQV       0.213600
      2 C15        -36.8230    11.4150     2.0490 cc         1 XQV      -0.034300
      3 C17        -34.7570    12.6020     1.7700 cd         1 XQV      -0.090000
      4 C21        -33.6910    13.8920     3.6200 ca         1 XQV      -0.034000
      5 C22        -32.3610    13.6350     3.2840 ca         1 XQV      -0.102000
      6 C24        -31.6340    15.5300     4.5760 ca         1 XQV      -0.119000
      7 C26        -33.9750    14.9790     4.4480 ca         1 XQV      -0.102000
      8 C01        -42.6990    11.5820    12.4240 c3         1 XQV      -0.078100
      9 C02        -41.2100    11.8770    12.4640 c3         1 XQV      -0.159400
     10 C03        -40.5780    11.9550    11.0890 c          1 XQV       0.673100
     11 C06        -38.5200    12.8830    10.0140 ca         1 XQV       0.106600
     12 C07        -37.3860    13.6490    10.3080 ca         1 XQV      -0.224000
     13 C08        -36.4650    13.9090     9.3130 ca         1 XQV      -0.072000
     14 C09        -36.6240    13.4300     8.0200 ca         1 XQV      -0.190000
     15 C12        -37.3060    12.1920     5.3190 cc         1 XQV       0.774200
     16 C16        -35.7820    11.7880     1.2540 cd         1 XQV      -0.186000
     17 C18        -34.7650    13.0430     3.0750 cc         1 XQV      -0.020000
     18 C19        -35.8550    12.6360     3.8770 cc         1 XQV       0.021700
     19 C23        -31.3410    14.4490     3.7570 ca         1 XQV      -0.133500
     20 C25        -32.9550    15.7920     4.9200 ca         1 XQV      -0.133500
     21 C27        -38.6970    12.3950     8.7240 ca         1 XQV      -0.222000
     22 N05        -39.4110    12.6560    11.0660 ns         1 XQV      -0.477100
     23 N11        -38.0180    12.1230     6.4750 nu         1 XQV      -0.694600
     24 N13        -37.7620    11.5570     4.2450 nd         1 XQV      -0.671100
     25 N14        -36.8290    11.8460     3.3280 na         1 XQV       0.209000
     26 N20        -36.1550    12.8580     5.1530 nd         1 XQV      -0.441300
     27 O04        -41.0660    11.4160    10.1130 o          1 XQV      -0.579100
     28 H1         -37.6520    10.7970     1.7370 h4         1 XQV       0.181000
     29 H2         -33.9510    12.9020     1.1140 ha         1 XQV       0.147000
     30 H3         -32.1170    12.7850     2.6590 ha         1 XQV       0.138500
     31 H4         -30.8390    16.1640     4.9470 ha         1 XQV       0.131000
     32 H5         -34.9990    15.2020     4.7160 ha         1 XQV       0.138500
     33 H6         -43.0940    11.5320    13.4380 hc         1 XQV       0.044367
     34 H7         -43.2480    12.3590    11.8920 hc         1 XQV       0.044367
     35 H8         -42.9090    10.6300    11.9400 hc         1 XQV       0.044367
     36 H9         -40.6880    11.0900    13.0170 hc         1 XQV       0.056700
     37 H10        -41.0210    12.8010    13.0160 hc         1 XQV       0.056700
     38 H11        -37.2330    14.0350    11.3080 ha         1 XQV       0.126000
     39 H12        -35.5910    14.5040     9.5470 ha         1 XQV       0.130000
     40 H13        -35.8860    13.6480     7.2660 ha         1 XQV       0.172000
     41 H14        -35.7580    11.4600     0.2260 ha         1 XQV       0.155000
     42 H15        -30.3150    14.2320     3.4890 ha         1 XQV       0.132000
     43 H16        -33.1930    16.6350     5.5550 ha         1 XQV       0.132000
     44 H17        -39.5650    11.8030     8.4800 ha         1 XQV       0.163000
     45 H18        -39.1330    13.0680    11.9440 hn         1 XQV       0.314500
     46 H19        -38.8670    11.5830     6.4020 hn         1 XQV       0.458800
@<TRIPOS>BOND
     1     1    14 ar  
     2     1    21 ar  
     3     1    23 1   
     4     2    16 2   
     5     2    25 1   
     6     2    28 1   
     7     3    16 1   
     8     3    17 2   
     9     3    29 1   
    10     4     5 ar  
    11     4     7 ar  
    12     4    17 1   
    13     5    19 ar  
    14     5    30 1   
    15     6    19 ar  
    16     6    20 ar  
    17     6    31 1   
    18     7    20 ar  
    19     7    32 1   
    20     8     9 1   
    21     8    33 1   
    22     8    34 1   
    23     8    35 1   
    24     9    10 1   
    25     9    36 1   
    26     9    37 1   
    27    10    22 1   
    28    10    27 2   
    29    11    12 ar  
    30    11    21 ar  
    31    11    22 1   
    32    12    13 ar  
    33    12    38 1   
    34    13    14 ar  
    35    13    39 1   
    36    14    40 1   
    37    15    23 1   
    38    15    24 2   
    39    15    26 1   
    40    16    41 1   
    41    17    18 1   
    42    18    25 1   
    43    18    26 2   
    44    19    42 1   
    45    20    43 1   
    46    21    44 1   
    47    22    45 1   
    48    23    46 1   
    49    24    25 1   
@<TRIPOS>SUBSTRUCTURE
     1 XQV         1 TEMP              0 ****  ****    0 ROOT
