@<TRIPOS>MOLECULE
XQV
   46    49     1     0     0
SMALL
No Charge or Current Charge


@<TRIPOS>ATOM
      1 C10        -38.3080    13.2540     7.3800 ca         1 XQV       0.352000
      2 C15        -36.8450    11.4050     2.0080 cc         1 XQV      -0.067000
      3 C17        -34.5260    12.3230     1.9710 cd         1 XQV      -0.072000
      4 C21        -33.5440    13.6260     3.7990 ca         1 XQV      -0.034000
      5 C22        -32.2020    13.3820     3.4090 ca         1 XQV      -0.084000
      6 C24        -31.3960    15.1470     4.8810 ca         1 XQV      -0.101000
      7 C26        -33.7750    14.6490     4.7500 ca         1 XQV      -0.084000
      8 C01        -42.0840    11.4510    12.7670 c3         1 XQV      -0.078100
      9 C02        -40.5770    11.1730    12.5660 c3         1 XQV      -0.159400
     10 C03        -40.1410    11.4140    11.1130 c          1 XQV       0.606100
     11 C06        -38.7820    13.1420     9.7790 ca         1 XQV       0.014000
     12 C07        -38.0080    14.3010     9.9680 ca         1 XQV      -0.206000
     13 C08        -37.3940    14.9390     8.8790 ca         1 XQV      -0.054000
     14 C09        -37.5480    14.4160     7.5870 ca         1 XQV      -0.172000
     15 C12        -37.6730    12.5520     5.0590 cc         1 XQV       0.774200
     16 C16        -35.6200    11.6060     1.3760 cd         1 XQV      -0.168000
     17 C18        -34.6700    12.8340     3.2440 cc         1 XQV      -0.020000
     18 C19        -35.9580    12.6560     3.8480 cc         1 XQV      -0.029000
     19 C23        -31.1420    14.1350     3.9450 ca         1 XQV      -0.115500
     20 C25        -32.7150    15.4020     5.2820 ca         1 XQV      -0.115500
     21 C27        -38.9310    12.6290     8.4720 ca         1 XQV      -0.204000
     22 N05        -39.3770    12.5590    10.9300 ns         1 XQV      -0.151000
     23 N11        -38.4900    12.7230     6.1110 nu         1 XQV      -0.888200
     24 N13        -38.1420    11.8760     4.0430 nd         1 XQV      -0.671100
     25 N14        -37.0140    11.9600     3.2840 na         1 XQV       0.310400
     26 N20        -36.4450    13.0110     5.0160 nd         1 XQV      -0.441300
     27 O04        -40.4330    10.6240    10.2220 o          1 XQV      -0.579100
     28 H1         -37.6870    10.8690     1.5920 h4         1 XQV       0.163000
     29 H2         -33.6220    12.4630     1.3900 ha         1 XQV       0.129000
     30 H3         -31.9550    12.5840     2.7160 ha         1 XQV       0.120500
     31 H4         -30.5760    15.7300     5.2940 ha         1 XQV       0.113000
     32 H5         -34.7830    14.8970     5.0660 ha         1 XQV       0.120500
     33 H6         -42.3720    11.2710    13.8100 hc         1 XQV       0.044367
     34 H7         -42.3240    12.4920    12.5200 hc         1 XQV       0.044367
     35 H8         -42.6890    10.7960    12.1280 hc         1 XQV       0.044367
     36 H9         -40.3840    10.1250    12.8240 hc         1 XQV       0.056700
     37 H10        -40.0160    11.8290    13.2430 hc         1 XQV       0.056700
     38 H11        -37.8830    14.7160    10.9660 ha         1 XQV       0.108000
     39 H12        -36.8030    15.8400     9.0360 ha         1 XQV       0.112000
     40 H13        -37.0840    14.9230     6.7470 ha         1 XQV       0.154000
     41 H14        -35.4880    11.2030     0.3760 ha         1 XQV       0.137000
     42 H15        -30.1200    13.9260     3.6380 ha         1 XQV       0.114000
     43 H16        -32.9190    16.1890     6.0050 ha         1 XQV       0.114000
     44 H17        -39.5230    11.7410     8.2860 ha         1 XQV       0.145000
     45 H18        -39.2170    13.0860    11.7790 hn         1 XQV       0.148000
     46 H19        -39.2920    12.1140     6.0010 hn         1 XQV       0.514000
@<TRIPOS>BOND
     1     1    14 ar  
     2     1    21 ar  
     3     1    23 1   
     4     2    16 2   
     5     2    25 1   
     6     2    28 1   
     7     3    16 1   
     8     3    17 2   
     9     3    29 1   
    10     4     5 ar  
    11     4     7 ar  
    12     4    17 1   
    13     5    19 ar  
    14     5    30 1   
    15     6    19 ar  
    16     6    20 ar  
    17     6    31 1   
    18     7    20 ar  
    19     7    32 1   
    20     8     9 1   
    21     8    33 1   
    22     8    34 1   
    23     8    35 1   
    24     9    10 1   
    25     9    36 1   
    26     9    37 1   
    27    10    22 1   
    28    10    27 2   
    29    11    12 ar  
    30    11    21 ar  
    31    11    22 1   
    32    12    13 ar  
    33    12    38 1   
    34    13    14 ar  
    35    13    39 1   
    36    14    40 1   
    37    15    23 1   
    38    15    24 2   
    39    15    26 1   
    40    16    41 1   
    41    17    18 1   
    42    18    25 1   
    43    18    26 2   
    44    19    42 1   
    45    20    43 1   
    46    21    44 1   
    47    22    45 1   
    48    23    46 1   
    49    24    25 1   
@<TRIPOS>SUBSTRUCTURE
     1 XQV         1 TEMP              0 ****  ****    0 ROOT
