@<TRIPOS>MOLECULE
XQZ
   17    16     1     0     0
SMALL
No Charge or Current Charge


@<TRIPOS>ATOM
      1 C03         39.0730    -7.1370    -0.5650 c3         1 XQZ       0.144200
      2 C04         38.5430    -6.1000     0.4560 c3         1 XQZ      -0.091433
      3 C05         39.9020    -6.4120    -1.6580 c3         1 XQZ      -0.091433
      4 C06         37.8780    -7.9020    -1.1950 c3         1 XQZ      -0.091433
      5 N02         39.9420    -8.0770     0.1920 n7         1 XQZ      -0.601900
      6 O01         40.5040    -9.1380    -0.6860 oh         1 XQZ      -0.496300
      7 H1          37.9600    -6.5870     1.2470 hc         1 XQZ       0.041033
      8 H2          39.3700    -5.5560     0.9280 hc         1 XQZ       0.041033
      9 H3          37.8950    -5.3650    -0.0370 hc         1 XQZ       0.041033
     10 H4          40.7750    -5.9120    -1.2210 hc         1 XQZ       0.041033
     11 H5          40.2570    -7.1110    -2.4250 hc         1 XQZ       0.041033
     12 H6          39.2950    -5.6500    -2.1620 hc         1 XQZ       0.041033
     13 H7          37.3180    -8.4560    -0.4310 hc         1 XQZ       0.041033
     14 H8          37.1860    -7.2040    -1.6790 hc         1 XQZ       0.041033
     15 H9          38.2130    -8.6160    -1.9570 hc         1 XQZ       0.041033
     16 H10         39.3860    -8.5680     0.9130 hn         1 XQZ       0.405000
     17 H11         41.4760    -9.1550    -0.5020 ho         1 XQZ       0.452000
@<TRIPOS>BOND
     1     1     2 1   
     2     1     3 1   
     3     1     4 1   
     4     1     5 1   
     5     2     7 1   
     6     2     8 1   
     7     2     9 1   
     8     3    10 1   
     9     3    11 1   
    10     3    12 1   
    11     4    13 1   
    12     4    14 1   
    13     4    15 1   
    14     5     6 1   
    15     5    16 1   
    16     6    17 1   
@<TRIPOS>SUBSTRUCTURE
     1 XQZ         1 TEMP              0 ****  ****    0 ROOT
