@<TRIPOS>MOLECULE
XQZ
   17    16     1     0     0
SMALL
abcg2


@<TRIPOS>ATOM
      1 C03         39.0750    -7.1420    -0.5650 c3         1 XQZ       0.144200
      2 C04         38.5560    -6.1290     0.4590 c3         1 XQZ      -0.091433
      3 C05         39.9080    -6.4370    -1.6350 c3         1 XQZ      -0.091433
      4 C06         37.9010    -7.8940    -1.2020 c3         1 XQZ      -0.091433
      5 N02         39.9650    -8.0430     0.2080 n7         1 XQZ      -0.601900
      6 O01         40.4040    -9.1460    -0.6200 oh         1 XQZ      -0.496300
      7 H1          37.9860    -6.6280     1.2470 hc         1 XQZ       0.041033
      8 H2          39.3810    -5.5830     0.9190 hc         1 XQZ       0.041033
      9 H3          37.8960    -5.4130    -0.0320 hc         1 XQZ       0.041033
     10 H4          40.7400    -5.8980    -1.1780 hc         1 XQZ       0.041033
     11 H5          40.3100    -7.1550    -2.3500 hc         1 XQZ       0.041033
     12 H6          39.2900    -5.7220    -2.1800 hc         1 XQZ       0.041033
     13 H7          37.3070    -8.3980    -0.4340 hc         1 XQZ       0.041033
     14 H8          37.2490    -7.1990    -1.7350 hc         1 XQZ       0.041033
     15 H9          38.2560    -8.6420    -1.9110 hc         1 XQZ       0.041033
     16 H10         39.3920    -8.5060     0.9110 hn         1 XQZ       0.405000
     17 H11         41.3570    -9.0110    -0.6820 ho         1 XQZ       0.452000
@<TRIPOS>BOND
     1     1     2 1   
     2     1     3 1   
     3     1     4 1   
     4     1     5 1   
     5     2     7 1   
     6     2     8 1   
     7     2     9 1   
     8     3    10 1   
     9     3    11 1   
    10     3    12 1   
    11     4    13 1   
    12     4    14 1   
    13     4    15 1   
    14     5     6 1   
    15     5    16 1   
    16     6    17 1   
@<TRIPOS>SUBSTRUCTURE
     1 XQZ         1 TEMP              0 ****  ****    0 ROOT
