@<TRIPOS>MOLECULE
XR1
   67    72     1     0     0
SMALL
No Charge or Current Charge


@<TRIPOS>ATOM
      1 C26          0.6390     4.6490    -1.0460 c3         1 XR1      -0.107100
      2 C25          1.0250     3.9830     0.2880 c3         1 XR1       0.096000
      3 N21          1.4330     2.5580     0.1280 n          1 XR1      -0.363300
      4 C22          2.8150     2.2590     0.0330 c          1 XR1       0.578200
      5 O27          3.6720     3.1340     0.0580 o          1 XR1      -0.529000
      6 C33          5.3980     0.3530     0.9220 ca         1 XR1       0.133000
      7 C32          6.7250    -0.0940     0.8090 ca         1 XR1      -0.102000
      8 C31          7.2330    -0.5400    -0.4280 ca         1 XR1       0.008000
      9 C37          8.6200    -1.0060    -0.5240 cc         1 XR1      -0.184000
     10 C36          9.3300    -0.9370    -1.7040 cd         1 XR1       0.280900
     11 N35         10.6360    -1.4020    -1.6080 nd         1 XR1      -0.630000
     12 S38          9.5740    -1.6380     0.7850 ss         1 XR1      -0.023400
     13 C34         10.8810    -1.8000    -0.3620 cc         1 XR1       0.410300
     14 C30          6.3780    -0.5400    -1.5510 ca         1 XR1      -0.095000
     15 C29          5.0500    -0.0950    -1.4390 ca         1 XR1      -0.071000
     16 C28          4.5500     0.3580    -0.2050 ca         1 XR1      -0.015800
     17 C23          3.1670     0.8210    -0.1110 cc         1 XR1      -0.170400
     18 C24          2.2110    -0.1660    -0.1620 cd         1 XR1      -0.021200
     19 C19          0.8020     0.1890    -0.0690 ca         1 XR1      -0.302800
     20 C20         -0.2180    -0.7760    -0.1130 ca         1 XR1       0.204900
     21 N15         -1.5140    -0.4280    -0.0220 nb         1 XR1      -0.247000
     22 C18          0.4270     1.5310     0.0770 ca         1 XR1       0.314900
     23 N17         -0.8730     1.8770     0.1670 nb         1 XR1      -0.314000
     24 C16         -1.7720     0.8850     0.1020 ca         1 XR1       0.430900
     25 N14         -3.0880     1.3020     0.2330 nu         1 XR1      -0.916900
     26 C8          -4.3370     0.6750     0.1230 ca         1 XR1       0.259000
     27 C13         -5.4350     1.2310     0.8030 ca         1 XR1      -0.096000
     28 C12         -6.7100     0.6420     0.7130 ca         1 XR1      -0.143500
     29 C11         -6.9160    -0.5110    -0.0680 ca         1 XR1       0.284000
     30 C10         -5.8200    -1.0570    -0.7660 ca         1 XR1      -0.143500
     31 C9          -4.5440    -0.4690    -0.6740 ca         1 XR1      -0.096000
     32 N3          -8.2070    -1.0860    -0.1480 nh         1 XR1      -0.785400
     33 C2          -8.6240    -1.9050    -1.3320 c6         1 XR1       0.195800
     34 C4          -8.9350    -1.4700     1.1060 c6         1 XR1       0.195800
     35 C5         -10.4820    -1.5640     0.9000 c6         1 XR1       0.157800
     36 N6         -10.8630    -2.4500    -0.2420 n3         1 XR1      -0.714600
     37 C7         -12.3280    -2.5710    -0.4070 c3         1 XR1       0.152100
     38 C1         -10.1780    -1.9900    -1.4890 c6         1 XR1       0.157800
     39 H1           1.4850     4.6330    -1.7430 hc         1 XR1       0.044367
     40 H2          -0.2050     4.1280    -1.5140 hc         1 XR1       0.044367
     41 H3           0.3490     5.6930    -0.8800 hc         1 XR1       0.044367
     42 H4           1.8370     4.5590     0.7510 h1         1 XR1       0.071700
     43 H5           0.1780     4.0480     0.9820 h1         1 XR1       0.071700
     44 H6           7.3590    -0.0850     1.6910 ha         1 XR1       0.132000
     45 H7           8.9700    -0.5590    -2.6530 h4         1 XR1       0.045100
     46 H8          11.8260    -2.2050    -0.0230 h5         1 XR1       0.053100
     47 H9           6.7300    -0.8960    -2.5150 ha         1 XR1       0.123000
     48 H10          4.4050    -0.1010    -2.3150 ha         1 XR1       0.126000
     49 H11          2.5090    -1.2080    -0.2650 ha         1 XR1       0.195000
     50 H12          0.0010    -1.8370    -0.2190 h4         1 XR1       0.027100
     51 H13         -3.1400     2.2720     0.5430 hn         1 XR1       0.513000
     52 H14         -5.3020     2.1220     1.4120 ha         1 XR1       0.123000
     53 H15         -7.5430     1.0930     1.2430 ha         1 XR1       0.117000
     54 H16         -5.9460    -1.9440    -1.3790 ha         1 XR1       0.117000
     55 H17         -3.7270    -0.9020    -1.2410 ha         1 XR1       0.123000
     56 H18         -8.2100    -1.4750    -2.2560 h1         1 XR1       0.044450
     57 H19         -8.2250    -2.9260    -1.2370 h1         1 XR1       0.044450
     58 H20         -8.5690    -2.4460     1.4570 h1         1 XR1       0.044450
     59 H21         -8.7390    -0.7460     1.9100 h1         1 XR1       0.044450
     60 H22        -10.9360    -1.9290     1.8320 h1         1 XR1       0.040200
     61 H23        -10.8710    -0.5480     0.7320 h1         1 XR1       0.040200
     62 H25        -12.7790    -1.5960    -0.6390 h1         1 XR1       0.032033
     63 H26        -12.5700    -3.2650    -1.2240 h1         1 XR1       0.032033
     64 H27        -12.7910    -2.9550     0.5110 h1         1 XR1       0.032033
     65 H28        -10.5520    -0.9960    -1.7770 h1         1 XR1       0.040200
     66 H29        -10.4070    -2.6700    -2.3220 h1         1 XR1       0.040200
     67 Cl1          4.8100     0.8840     2.4990 cl         1 XR1      -0.199000
@<TRIPOS>BOND
     1     1     2 1   
     2     1    39 1   
     3     1    40 1   
     4     1    41 1   
     5     2     3 1   
     6     2    42 1   
     7     2    43 1   
     8     3     4 1   
     9     3    22 1   
    10     4     5 2   
    11     4    17 1   
    12     6     7 ar  
    13     6    16 ar  
    14     6    67 1   
    15     7     8 ar  
    16     7    44 1   
    17     8     9 1   
    18     8    14 ar  
    19     9    10 2   
    20     9    12 1   
    21    10    11 1   
    22    10    45 1   
    23    11    13 2   
    24    12    13 1   
    25    13    46 1   
    26    14    15 ar  
    27    14    47 1   
    28    15    16 ar  
    29    15    48 1   
    30    16    17 1   
    31    17    18 2   
    32    18    19 1   
    33    18    49 1   
    34    19    20 ar  
    35    19    22 ar  
    36    20    21 ar  
    37    20    50 1   
    38    21    24 ar  
    39    22    23 ar  
    40    23    24 ar  
    41    24    25 1   
    42    25    26 1   
    43    25    51 1   
    44    26    27 ar  
    45    26    31 ar  
    46    27    28 ar  
    47    27    52 1   
    48    28    29 ar  
    49    28    53 1   
    50    29    30 ar  
    51    29    32 1   
    52    30    31 ar  
    53    30    54 1   
    54    31    55 1   
    55    32    33 1   
    56    32    34 1   
    57    33    38 1   
    58    33    56 1   
    59    33    57 1   
    60    34    35 1   
    61    34    58 1   
    62    34    59 1   
    63    35    36 1   
    64    35    60 1   
    65    35    61 1   
    66    36    37 1   
    67    36    38 1   
    68    37    62 1   
    69    37    63 1   
    70    37    64 1   
    71    38    65 1   
    72    38    66 1   
@<TRIPOS>SUBSTRUCTURE
     1 XR1         1 TEMP              0 ****  ****    0 ROOT
