@<TRIPOS>MOLECULE
XR1
   67    72     1     0     0
SMALL
bcc


@<TRIPOS>ATOM
      1 C26          0.8150     4.4960    -1.3000 c3         1 XR1      -0.107100
      2 C25          1.0250     3.8640     0.0640 c3         1 XR1       0.096000
      3 N21          1.3410     2.4360    -0.0270 n          1 XR1      -0.430300
      4 C22          2.6810     2.0640    -0.0900 c          1 XR1       0.720700
      5 O27          3.5570     2.9130    -0.0680 o          1 XR1      -0.604500
      6 C33          4.9790    -0.5290     0.7980 ca         1 XR1       0.041400
      7 C32          6.3060    -0.9260     0.7350 ca         1 XR1      -0.120000
      8 C31          7.0930    -0.5680    -0.3570 ca         1 XR1       0.008000
      9 C37          8.4920    -0.9740    -0.4430 cc         1 XR1      -0.104400
     10 C36          9.5150    -0.3640    -1.1110 cd         1 XR1       0.346200
     11 N35         10.7320    -0.9650    -1.0200 nd         1 XR1      -0.630000
     12 S38          9.1090    -2.3850     0.3340 ss         1 XR1      -0.168300
     13 C34         10.6660    -2.0330    -0.2920 cc         1 XR1       0.410300
     14 C30          6.5180     0.2000    -1.3720 ca         1 XR1      -0.113000
     15 C29          5.1970     0.5960    -1.2860 ca         1 XR1      -0.089000
     16 C28          4.3890     0.2340    -0.2070 ca         1 XR1      -0.015800
     17 C23          2.9710     0.6360    -0.1700 cc         1 XR1      -0.170400
     18 C24          1.9680    -0.2670    -0.2170 cd         1 XR1       0.028800
     19 C19          0.6170     0.1580    -0.1870 ca         1 XR1      -0.433400
     20 C20         -0.4880    -0.6890    -0.2430 ca         1 XR1       0.533200
     21 N15         -1.7300    -0.2640    -0.2170 nb         1 XR1      -0.773000
     22 C18          0.3200     1.5300    -0.0970 ca         1 XR1       0.643200
     23 N17         -0.9230     1.9740    -0.0750 nb         1 XR1      -0.840000
     24 C16         -1.8970     1.0650    -0.1330 ca         1 XR1       0.956900
     25 N14         -3.1490     1.5630    -0.0930 nu         1 XR1      -0.723300
     26 C8          -4.3730     0.8780    -0.1110 ca         1 XR1       0.120600
     27 C13         -5.4220     1.3910     0.6530 ca         1 XR1      -0.114000
     28 C12         -6.6710     0.8020     0.6390 ca         1 XR1      -0.161500
     29 C11         -6.9280    -0.3440    -0.1260 ca         1 XR1       0.145600
     30 C10         -5.8670    -0.8520    -0.8840 ca         1 XR1      -0.161500
     31 C9          -4.6190    -0.2450    -0.8920 ca         1 XR1      -0.114000
     32 N3          -8.2040    -0.9060    -0.1440 nh         1 XR1      -0.647000
     33 C2          -8.4570    -1.9800    -1.0830 c6         1 XR1       0.195800
     34 C4          -8.8350    -1.1600     1.1440 c6         1 XR1       0.195800
     35 C5         -10.3200    -1.4150     0.9750 c6         1 XR1       0.157800
     36 N6         -10.5520    -2.5140     0.0630 n3         1 XR1      -0.714600
     37 C7         -11.9580    -2.8180    -0.0650 c3         1 XR1       0.152100
     38 C1          -9.9490    -2.2230    -1.2200 c6         1 XR1       0.157800
     39 H1           1.7050     4.4090    -1.9230 hc         1 XR1       0.044367
     40 H2          -0.0220     4.0370    -1.8260 hc         1 XR1       0.044367
     41 H3           0.5920     5.5560    -1.1810 hc         1 XR1       0.044367
     42 H4           1.8410     4.3490     0.5910 h1         1 XR1       0.071700
     43 H5           0.1320     3.9650     0.6740 h1         1 XR1       0.071700
     44 H6           6.7250    -1.4980     1.5530 ha         1 XR1       0.150000
     45 H7           9.4150     0.5530    -1.6750 h4         1 XR1       0.045100
     46 H8          11.5070    -2.6760    -0.0760 h5         1 XR1       0.053100
     47 H9           7.0960     0.4770    -2.2430 ha         1 XR1       0.141000
     48 H10          4.7680     1.1770    -2.0910 ha         1 XR1       0.144000
     49 H11          2.1790    -1.3270    -0.2890 ha         1 XR1       0.145000
     50 H12         -0.3370    -1.7620    -0.3070 h4         1 XR1       0.027100
     51 H13         -3.1960     2.5580     0.0710 hn         1 XR1       0.457800
     52 H14         -5.2620     2.2740     1.2600 ha         1 XR1       0.141000
     53 H15         -7.4580     1.2580     1.2240 ha         1 XR1       0.135000
     54 H16         -5.9950    -1.7360    -1.4920 ha         1 XR1       0.135000
     55 H17         -3.8400    -0.6670    -1.5080 ha         1 XR1       0.141000
     56 H18         -8.0690    -1.7040    -2.0640 h1         1 XR1       0.044450
     57 H19         -7.9590    -2.9140    -0.7810 h1         1 XR1       0.044450
     58 H20         -8.3700    -2.0250     1.6410 h1         1 XR1       0.044450
     59 H21         -8.7090    -0.3030     1.8030 h1         1 XR1       0.044450
     60 H22        -10.7450    -1.6610     1.9510 h1         1 XR1       0.040200
     61 H23        -10.8110    -0.4870     0.6310 h1         1 XR1       0.040200
     62 H25        -12.5480    -1.9800    -0.4690 h1         1 XR1       0.032033
     63 H26        -12.0970    -3.6730    -0.7290 h1         1 XR1       0.032033
     64 H27        -12.3750    -3.0790     0.9090 h1         1 XR1       0.032033
     65 H28        -10.4150    -1.3450    -1.7000 h1         1 XR1       0.040200
     66 H29        -10.1000    -3.0730    -1.8900 h1         1 XR1       0.040200
     67 CL1          4.0680    -0.9860     2.1990 cl         1 XR1      -0.107400
@<TRIPOS>BOND
     1     1     2 1   
     2     1    39 1   
     3     1    40 1   
     4     1    41 1   
     5     2     3 1   
     6     2    42 1   
     7     2    43 1   
     8     3     4 1   
     9     3    22 1   
    10     4     5 2   
    11     4    17 1   
    12     6     7 ar  
    13     6    16 ar  
    14     6    67 1   
    15     7     8 ar  
    16     7    44 1   
    17     8     9 1   
    18     8    14 ar  
    19     9    10 2   
    20     9    12 1   
    21    10    11 1   
    22    10    45 1   
    23    11    13 2   
    24    12    13 1   
    25    13    46 1   
    26    14    15 ar  
    27    14    47 1   
    28    15    16 ar  
    29    15    48 1   
    30    16    17 1   
    31    17    18 2   
    32    18    19 1   
    33    18    49 1   
    34    19    20 ar  
    35    19    22 ar  
    36    20    21 ar  
    37    20    50 1   
    38    21    24 ar  
    39    22    23 ar  
    40    23    24 ar  
    41    24    25 1   
    42    25    26 1   
    43    25    51 1   
    44    26    27 ar  
    45    26    31 ar  
    46    27    28 ar  
    47    27    52 1   
    48    28    29 ar  
    49    28    53 1   
    50    29    30 ar  
    51    29    32 1   
    52    30    31 ar  
    53    30    54 1   
    54    31    55 1   
    55    32    33 1   
    56    32    34 1   
    57    33    38 1   
    58    33    56 1   
    59    33    57 1   
    60    34    35 1   
    61    34    58 1   
    62    34    59 1   
    63    35    36 1   
    64    35    60 1   
    65    35    61 1   
    66    36    37 1   
    67    36    38 1   
    68    37    62 1   
    69    37    63 1   
    70    37    64 1   
    71    38    65 1   
    72    38    66 1   
@<TRIPOS>SUBSTRUCTURE
     1 XR1         1 TEMP              0 ****  ****    0 ROOT
