@<TRIPOS>MOLECULE
XR7
  111   116     1     0     0
SMALL
abcg2


@<TRIPOS>ATOM
      1 C01         -8.7760    34.2230    -6.5370 ca         1 XR7       0.207000
      2 C02         -8.9550    34.6010    -7.8640 ca         1 XR7      -0.062000
      3 C03        -10.2220    34.8840    -8.3610 ca         1 XR7      -0.050300
      4 C04        -10.3980    35.2420    -9.7910 cc         1 XR7      -0.098900
      5 C05        -10.9650    34.3120   -10.7360 ca         1 XR7       0.032200
      6 C06        -11.1020    34.7080   -12.0860 ca         1 XR7      -0.165100
      7 C07        -11.6380    33.8170   -13.0270 ca         1 XR7      -0.045000
      8 C08        -12.0300    32.5500   -12.6480 ca         1 XR7      -0.135500
      9 C09        -11.8860    32.1490   -11.3120 ca         1 XR7      -0.082000
     10 C10        -11.3650    33.0130   -10.3730 ca         1 XR7      -0.119500
     11 C11         -9.9940    36.4500   -10.2450 cd         1 XR7      -0.020400
     12 C13        -10.6770    36.0360   -12.5300 c          1 XR7       0.567100
     13 C14         -9.8770    34.1610    -5.6940 ca         1 XR7      -0.092500
     14 C15        -11.1470    34.4630    -6.1620 ca         1 XR7      -0.173500
     15 C16        -11.3310    34.8170    -7.4980 ca         1 XR7       0.167600
     16 C17        -13.7720    34.7940    -7.4680 c3         1 XR7       0.166100
     17 C18        -14.2440    33.4660    -8.0120 c3         1 XR7       0.125600
     18 C19        -13.7000    31.1660    -8.1110 c3         1 XR7       0.137100
     19 C20        -12.6090    30.1640    -7.7970 c3         1 XR7       0.143100
     20 C21        -11.9950    30.6820    -5.5460 c3         1 XR7       0.143100
     21 C22        -11.9210    30.0430    -4.1690 c3         1 XR7       0.137100
     22 C23        -12.5460    31.7730    -2.6510 c3         1 XR7       0.125600
     23 C24        -11.9890    33.0000    -1.9710 c3         1 XR7       0.166100
     24 C25         -9.8540    32.5030    -0.9220 ca         1 XR7       0.167600
     25 C26         -9.1720    32.2840     0.2880 ca         1 XR7      -0.050300
     26 C27         -9.9120    32.2490     1.5750 cc         1 XR7      -0.098900
     27 C28         -9.9510    33.3380     2.3710 cd         1 XR7      -0.020400
     28 C30        -11.3080    32.2860     4.0800 c          1 XR7       0.567100
     29 C31        -11.2870    31.0830     3.2410 ca         1 XR7      -0.165100
     30 C32        -10.6040    31.0630     2.0050 ca         1 XR7       0.032200
     31 C33        -10.6260    29.8830     1.2380 ca         1 XR7      -0.119500
     32 C34        -11.3000    28.7670     1.6880 ca         1 XR7      -0.082000
     33 C35        -11.9720    28.7880     2.9180 ca         1 XR7      -0.135500
     34 C36        -11.9630    29.9370     3.6840 ca         1 XR7      -0.045000
     35 C37         -7.7980    32.0760     0.2610 ca         1 XR7      -0.062000
     36 C38         -7.0910    32.0750    -0.9380 ca         1 XR7       0.207000
     37 C39         -4.4360    33.2950    -2.8590 c3         1 XR7      -0.316400
     38 C40         -3.4580    34.4050    -3.2110 c3         1 XR7      -0.063600
     39 C41         -7.7760    32.2860    -2.1260 ca         1 XR7      -0.092500
     40 C42         -9.1450    32.5030    -2.1210 ca         1 XR7      -0.173500
     41 C43         -7.9680    31.1680    -6.1370 c3         1 XR7      -0.316400
     42 C44         -7.4790    29.7910    -6.5620 c3         1 XR7      -0.063600
     43 N01         -7.4750    33.8830    -6.0430 nu         1 XR7      -0.879600
     44 N02        -10.1220    36.8430   -11.5570 n          1 XR7      -0.291500
     45 N03        -10.6210    33.3740     3.5730 n          1 XR7      -0.291500
     46 N04         -5.6810    31.8370    -0.9520 nu         1 XR7      -0.879600
     47 O01         -5.6030    32.2950    -5.7030 o          1 XR7      -0.539000
     48 O02        -10.7850    36.4460   -13.6910 o          1 XR7      -0.559000
     49 O03        -12.5210    35.1760    -8.0510 os         1 XR7      -0.339600
     50 O04        -13.3530    32.4460    -7.6030 os         1 XR7      -0.471500
     51 O05        -12.5750    29.7400    -6.4400 os         1 XR7      -0.463000
     52 O06        -11.4930    30.9980    -3.2070 os         1 XR7      -0.471500
     53 O07        -11.1960    32.6870    -0.8190 os         1 XR7      -0.339600
     54 O08        -11.8940    32.3450     5.1660 o          1 XR7      -0.559000
     55 O09         -3.3750    32.6320    -0.5250 o          1 XR7      -0.539000
     56 O10         -5.1990    34.3250    -0.5630 o          1 XR7      -0.539000
     57 O11         -6.6250    32.4980    -7.9590 o          1 XR7      -0.539000
     58 S01         -6.7830    32.4510    -6.5230 s6         1 XR7       1.182600
     59 S02         -4.6190    33.1080    -1.0940 s6         1 XR7       1.182600
     60 H1          -8.1040    34.6460    -8.5290 ha         1 XR7       0.140500
     61 H2         -11.7340    34.1450   -14.0530 ha         1 XR7       0.136500
     62 H3         -12.4410    31.8650   -13.3790 ha         1 XR7       0.118000
     63 H4         -12.1870    31.1520   -11.0150 ha         1 XR7       0.109500
     64 H5         -11.2710    32.6990    -9.3430 ha         1 XR7       0.123000
     65 H6          -9.5550    37.1870    -9.5880 h4         1 XR7       0.204000
     66 H7          -9.2570    38.6790   -11.0940 h1         1 XR7       0.055367
     67 H8          -8.9180    38.0940   -12.7410 h1         1 XR7       0.055367
     68 H9         -10.5140    38.7510   -12.3510 h1         1 XR7       0.055367
     69 H10         -9.7380    33.8650    -4.6640 ha         1 XR7       0.110000
     70 H11        -11.9790    34.4020    -5.4780 ha         1 XR7       0.122000
     71 H12        -13.7210    34.7790    -6.3810 h1         1 XR7       0.060950
     72 H13        -14.4790    35.5680    -7.7660 h1         1 XR7       0.060950
     73 H14        -14.2870    33.5060    -9.1080 h1         1 XR7       0.042950
     74 H15        -15.2580    33.2720    -7.6360 h1         1 XR7       0.042950
     75 H16        -14.6520    30.8320    -7.6770 h1         1 XR7       0.050200
     76 H17        -13.8250    31.2200    -9.2000 h1         1 XR7       0.050200
     77 H18        -12.7940    29.2660    -8.3880 h1         1 XR7       0.046700
     78 H19        -11.6340    30.5750    -8.0880 h1         1 XR7       0.046700
     79 H20        -10.9890    30.9500    -5.8900 h1         1 XR7       0.046700
     80 H21        -12.5870    31.5980    -5.5070 h1         1 XR7       0.046700
     81 H22        -12.8960    29.6230    -3.8980 h1         1 XR7       0.050200
     82 H23        -11.1880    29.2350    -4.1610 h1         1 XR7       0.050200
     83 H24        -13.2380    32.1130    -3.4290 h1         1 XR7       0.042950
     84 H25        -13.1130    31.1680    -1.9320 h1         1 XR7       0.042950
     85 H26        -11.4320    33.6210    -2.6720 h1         1 XR7       0.060950
     86 H27        -12.8250    33.5860    -1.5870 h1         1 XR7       0.060950
     87 H28         -9.4570    34.2600     2.0990 h4         1 XR7       0.204000
     88 H29        -11.1440    34.4900     5.2510 h1         1 XR7       0.055367
     89 H30         -9.5570    34.8920     4.5590 h1         1 XR7       0.055367
     90 H31        -11.0430    35.4240     3.7410 h1         1 XR7       0.055367
     91 H32        -10.1060    29.8610     0.2900 ha         1 XR7       0.123000
     92 H33        -11.3080    27.8660     1.0860 ha         1 XR7       0.109500
     93 H34        -12.4940    27.9070     3.2660 ha         1 XR7       0.118000
     94 H35        -12.4750    29.9740     4.6350 ha         1 XR7       0.136500
     95 H36         -7.2710    31.9130     1.1930 ha         1 XR7       0.140500
     96 H37         -5.4340    33.4980    -3.2430 h1         1 XR7       0.094950
     97 H38         -4.1150    32.3230    -3.2260 h1         1 XR7       0.094950
     98 H39         -3.3800    34.4690    -4.2970 hc         1 XR7       0.053033
     99 H40         -3.8010    35.3680    -2.8360 hc         1 XR7       0.053033
    100 H41         -2.4650    34.2030    -2.8090 hc         1 XR7       0.053033
    101 H42         -7.2520    32.2650    -3.0720 ha         1 XR7       0.110000
    102 H43         -9.6590    32.6070    -3.0590 ha         1 XR7       0.122000
    103 H44         -8.1400    31.2340    -5.0640 h1         1 XR7       0.094950
    104 H45         -8.8840    31.4520    -6.6540 h1         1 XR7       0.094950
    105 H46         -8.2400    29.0540    -6.3060 hc         1 XR7       0.053033
    106 H47         -7.3080    29.7500    -7.6370 hc         1 XR7       0.053033
    107 H48         -6.5560    29.5230    -6.0470 hc         1 XR7       0.053033
    108 H49         -7.3830    33.9860    -5.0370 hn         1 XR7       0.487500
    109 H50         -5.3450    31.2070    -0.2310 hn         1 XR7       0.487500
    110 C12         -9.6750    38.1760   -11.9610 c3         1 XR7       0.079300
    111 C29        -10.5890    34.6270     4.3310 c3         1 XR7       0.079300
@<TRIPOS>BOND
     1     1     2 ar  
     2     1    13 ar  
     3     1    43 1   
     4     2     3 ar  
     5     2    60 1   
     6     3     4 1   
     7     3    15 ar  
     8     4     5 1   
     9     4    11 2   
    10     5     6 ar  
    11     5    10 ar  
    12     6     7 ar  
    13     6    12 1   
    14     7     8 ar  
    15     7    61 1   
    16     8     9 ar  
    17     8    62 1   
    18     9    10 ar  
    19     9    63 1   
    20    10    64 1   
    21    11    44 1   
    22    11    65 1   
    23    12    44 1   
    24    12    48 2   
    25    13    14 ar  
    26    13    69 1   
    27    14    15 ar  
    28    14    70 1   
    29    15    49 1   
    30    16    17 1   
    31    16    49 1   
    32    16    71 1   
    33    16    72 1   
    34    17    50 1   
    35    17    73 1   
    36    17    74 1   
    37    18    19 1   
    38    18    50 1   
    39    18    75 1   
    40    18    76 1   
    41    19    51 1   
    42    19    77 1   
    43    19    78 1   
    44    20    21 1   
    45    20    51 1   
    46    20    79 1   
    47    20    80 1   
    48    21    52 1   
    49    21    81 1   
    50    21    82 1   
    51    22    23 1   
    52    22    52 1   
    53    22    83 1   
    54    22    84 1   
    55    23    53 1   
    56    23    85 1   
    57    23    86 1   
    58    24    25 ar  
    59    24    40 ar  
    60    24    53 1   
    61    25    26 1   
    62    25    35 ar  
    63    26    27 2   
    64    26    30 1   
    65    27    45 1   
    66    27    87 1   
    67    28    29 1   
    68    28    45 1   
    69    28    54 2   
    70    29    30 ar  
    71    29    34 ar  
    72    30    31 ar  
    73    31    32 ar  
    74    31    91 1   
    75    32    33 ar  
    76    32    92 1   
    77    33    34 ar  
    78    33    93 1   
    79    34    94 1   
    80    35    36 ar  
    81    35    95 1   
    82    36    39 ar  
    83    36    46 1   
    84    37    38 1   
    85    37    59 1   
    86    37    96 1   
    87    37    97 1   
    88    38    98 1   
    89    38    99 1   
    90    38   100 1   
    91    39    40 ar  
    92    39   101 1   
    93    40   102 1   
    94    41    42 1   
    95    41    58 1   
    96    41   103 1   
    97    41   104 1   
    98    42   105 1   
    99    42   106 1   
   100    42   107 1   
   101    43    58 1   
   102    43   108 1   
   103    44   110 1   
   104    45   111 1   
   105    46    59 1   
   106    46   109 1   
   107    47    58 2   
   108    55    59 2   
   109    56    59 2   
   110    57    58 2   
   111    66   110 1   
   112    67   110 1   
   113    68   110 1   
   114    88   111 1   
   115    89   111 1   
   116    90   111 1   
@<TRIPOS>SUBSTRUCTURE
     1 XR7         1 TEMP              0 ****  ****    0 ROOT
