@<TRIPOS>MOLECULE
XR7
  111   116     1     0     0
SMALL
No Charge or Current Charge


@<TRIPOS>ATOM
      1 C01         -9.3450    34.6470    -6.7490 ca         1 XR7       0.207000
      2 C02         -9.4960    34.7020    -8.1450 ca         1 XR7      -0.062000
      3 C03        -10.7760    34.7850    -8.7280 ca         1 XR7      -0.050300
      4 C04        -10.8950    34.8690   -10.1830 cc         1 XR7      -0.098900
      5 C05        -11.4030    33.8020   -11.0440 ca         1 XR7       0.032200
      6 C06        -11.5310    34.0180   -12.4300 ca         1 XR7      -0.165100
      7 C07        -12.0280    32.9850   -13.2570 ca         1 XR7      -0.045000
      8 C08        -12.3870    31.7450   -12.7040 ca         1 XR7      -0.135500
      9 C09        -12.2470    31.5250   -11.3260 ca         1 XR7      -0.082000
     10 C10        -11.7550    32.5490   -10.5030 ca         1 XR7      -0.119500
     11 C11        -10.5240    36.0700   -10.7530 cd         1 XR7      -0.020400
     12 C13        -11.1290    35.3420   -13.0180 c          1 XR7       0.567100
     13 C14        -10.4850    34.6780    -5.9320 ca         1 XR7      -0.092500
     14 C15        -11.7690    34.7410    -6.5000 ca         1 XR7      -0.173500
     15 C16        -11.9240    34.7920    -7.9030 ca         1 XR7       0.167600
     16 C17        -14.3940    34.4480    -7.8910 c3         1 XR7       0.166100
     17 C18        -14.5690    32.9310    -8.1560 c3         1 XR7       0.125600
     18 C19        -13.6250    30.7570    -7.6420 c3         1 XR7       0.137100
     19 C20        -12.2600    30.0910    -7.3220 c3         1 XR7       0.143100
     20 C21        -11.7820    31.2960    -5.2410 c3         1 XR7       0.143100
     21 C22        -11.1180    31.0020    -3.8770 c3         1 XR7       0.137100
     22 C23        -11.8370    32.9790    -2.6260 c3         1 XR7       0.125600
     23 C24        -11.2640    34.1860    -1.8370 c3         1 XR7       0.166100
     24 C25         -9.2730    33.1480    -0.7510 ca         1 XR7       0.167600
     25 C26         -8.8630    32.2790     0.2850 ca         1 XR7      -0.050300
     26 C27         -9.7640    31.9540     1.3890 cc         1 XR7      -0.098900
     27 C28         -9.4500    32.5050     2.6150 cd         1 XR7      -0.020400
     28 C30        -11.4340    31.5580     3.7060 c          1 XR7       0.567100
     29 C31        -11.8000    30.9340     2.3860 ca         1 XR7      -0.165100
     30 C32        -10.9680    31.1320     1.2670 ca         1 XR7       0.032200
     31 C33        -11.3000    30.5220     0.0390 ca         1 XR7      -0.119500
     32 C34        -12.4600    29.7390    -0.0800 ca         1 XR7      -0.082000
     33 C35        -13.2940    29.5540     1.0320 ca         1 XR7      -0.135500
     34 C36        -12.9660    30.1460     2.2620 ca         1 XR7      -0.045000
     35 C37         -7.5820    31.6950     0.2450 ca         1 XR7      -0.062000
     36 C38         -6.6970    31.9730    -0.8110 ca         1 XR7       0.207000
     37 C39         -3.8030    33.3150    -1.9530 c3         1 XR7      -0.316400
     38 C40         -2.4230    34.0140    -1.9680 c3         1 XR7      -0.063600
     39 C41         -7.1100    32.8330    -1.8430 ca         1 XR7      -0.092500
     40 C42         -8.3820    33.4290    -1.8100 ca         1 XR7      -0.173500
     41 C43         -7.9580    31.9200    -5.6090 c3         1 XR7      -0.316400
     42 C44         -7.1140    30.6330    -5.4720 c3         1 XR7      -0.063600
     43 N01         -8.0830    34.5980    -6.1630 nu         1 XR7      -0.879600
     44 N02        -10.6250    36.3150   -12.1240 n          1 XR7      -0.291500
     45 N03        -10.2430    32.3190     3.7490 n          1 XR7      -0.291500
     46 N04         -5.4420    31.3650    -0.8450 nu         1 XR7      -0.879600
     47 O01         -5.9530    33.6520    -5.3270 o          1 XR7      -0.539000
     48 O02        -11.2300    35.5660   -14.2200 o          1 XR7      -0.559000
     49 O03        -13.1680    34.9200    -8.4990 os         1 XR7      -0.339600
     50 O04        -13.5110    32.1900    -7.5180 os         1 XR7      -0.471500
     51 O05        -12.0080    30.0320    -5.8990 os         1 XR7      -0.463000
     52 O06        -10.7560    32.2390    -3.2290 os         1 XR7      -0.471500
     53 O07        -10.5330    33.7190    -0.6780 os         1 XR7      -0.339600
     54 O08        -12.1370    31.4080     4.7000 o          1 XR7      -0.559000
     55 O09         -2.9820    31.0790    -0.7430 o          1 XR7      -0.539000
     56 O10         -4.1310    32.8570     0.6570 o          1 XR7      -0.539000
     57 O11         -6.7530    33.1090    -7.6800 o          1 XR7      -0.539000
     58 S01         -7.0300    33.3180    -6.2580 s6         1 XR7       1.182600
     59 S02         -3.9880    32.1340    -0.6080 s6         1 XR7       1.182600
     60 H1          -8.6160    34.6990    -8.7810 ha         1 XR7       0.140500
     61 H2         -12.1340    33.1400   -14.3290 ha         1 XR7       0.136500
     62 H3         -12.7680    30.9530   -13.3460 ha         1 XR7       0.118000
     63 H4         -12.5180    30.5630   -10.8970 ha         1 XR7       0.109500
     64 H5         -11.6460    32.3670    -9.4380 ha         1 XR7       0.123000
     65 H6         -10.1460    36.9110   -10.1790 h4         1 XR7       0.204000
     66 H7          -9.8210    38.2780   -11.8860 h1         1 XR7       0.055367
     67 H8          -9.4350    37.4830   -13.4340 h1         1 XR7       0.055367
     68 H9         -11.0800    38.1190   -13.1400 h1         1 XR7       0.055367
     69 H10        -10.3780    34.6470    -4.8520 ha         1 XR7       0.110000
     70 H11        -12.6240    34.7720    -5.8340 ha         1 XR7       0.122000
     71 H12        -14.4500    34.6630    -6.8190 h1         1 XR7       0.060950
     72 H13        -15.2450    34.9600    -8.3580 h1         1 XR7       0.060950
     73 H14        -14.5660    32.7550    -9.2400 h1         1 XR7       0.042950
     74 H15        -15.5460    32.6180    -7.7660 h1         1 XR7       0.042950
     75 H16        -14.4020    30.3620    -6.9750 h1         1 XR7       0.050200
     76 H17        -13.8970    30.4870    -8.6710 h1         1 XR7       0.050200
     77 H18        -12.2810    29.0710    -7.7270 h1         1 XR7       0.046700
     78 H19        -11.4540    30.6270    -7.8410 h1         1 XR7       0.046700
     79 H20        -11.1090    31.9280    -5.8340 h1         1 XR7       0.046700
     80 H21        -12.7260    31.8320    -5.0890 h1         1 XR7       0.046700
     81 H22        -11.7980    30.4110    -3.2500 h1         1 XR7       0.050200
     82 H23        -10.2160    30.4020    -4.0530 h1         1 XR7       0.050200
     83 H24        -12.5240    33.3560    -3.3950 h1         1 XR7       0.042950
     84 H25        -12.4120    32.3450    -1.9390 h1         1 XR7       0.042950
     85 H26        -10.6540    34.8250    -2.4850 h1         1 XR7       0.060950
     86 H27        -12.1130    34.7950    -1.5030 h1         1 XR7       0.060950
     87 H28         -8.5780    33.1320     2.7810 h4         1 XR7       0.204000
     88 H29         -9.7440    32.1620     5.8030 h1         1 XR7       0.055367
     89 H30         -8.9040    33.4780     4.9400 h1         1 XR7       0.055367
     90 H31        -10.6310    33.6480     5.3540 h1         1 XR7       0.055367
     91 H32        -10.6610    30.6530    -0.8290 ha         1 XR7       0.123000
     92 H33        -12.7090    29.2760    -1.0330 ha         1 XR7       0.109500
     93 H34        -14.1930    28.9470     0.9430 ha         1 XR7       0.118000
     94 H35        -13.6180    29.9870     3.1190 ha         1 XR7       0.136500
     95 H36         -7.2790    31.0200     1.0400 ha         1 XR7       0.140500
     96 H37         -4.6000    34.0550    -1.8270 h1         1 XR7       0.094950
     97 H38         -3.9620    32.7540    -2.8800 h1         1 XR7       0.094950
     98 H39         -2.3650    34.7260    -2.8000 hc         1 XR7       0.053033
     99 H40         -2.2530    34.5670    -1.0350 hc         1 XR7       0.053033
    100 H41         -1.6130    33.2830    -2.0890 hc         1 XR7       0.053033
    101 H42         -6.4530    33.0290    -2.6840 ha         1 XR7       0.110000
    102 H43         -8.6630    34.0950    -2.6180 ha         1 XR7       0.122000
    103 H44         -8.3430    32.2290    -4.6310 h1         1 XR7       0.094950
    104 H45         -8.7950    31.7630    -6.2970 h1         1 XR7       0.094950
    105 H46         -7.7300    29.8140    -5.0810 hc         1 XR7       0.053033
    106 H47         -6.7110    30.3220    -6.4440 hc         1 XR7       0.053033
    107 H48         -6.2760    30.7850    -4.7810 hc         1 XR7       0.053033
    108 H49         -8.0480    34.8350    -5.1820 hn         1 XR7       0.487500
    109 H50         -5.3410    30.5670    -0.2320 hn         1 XR7       0.487500
    110 C12        -10.2150    37.6270   -12.6760 c3         1 XR7       0.079300
    111 C29         -9.8550    32.9400     5.0360 c3         1 XR7       0.079300
@<TRIPOS>BOND
     1     1     2 ar  
     2     1    13 ar  
     3     1    43 1   
     4     2     3 ar  
     5     2    60 1   
     6     3     4 1   
     7     3    15 ar  
     8     4     5 1   
     9     4    11 2   
    10     5     6 ar  
    11     5    10 ar  
    12     6     7 ar  
    13     6    12 1   
    14     7     8 ar  
    15     7    61 1   
    16     8     9 ar  
    17     8    62 1   
    18     9    10 ar  
    19     9    63 1   
    20    10    64 1   
    21    11    44 1   
    22    11    65 1   
    23    12    44 1   
    24    12    48 2   
    25    13    14 ar  
    26    13    69 1   
    27    14    15 ar  
    28    14    70 1   
    29    15    49 1   
    30    16    17 1   
    31    16    49 1   
    32    16    71 1   
    33    16    72 1   
    34    17    50 1   
    35    17    73 1   
    36    17    74 1   
    37    18    19 1   
    38    18    50 1   
    39    18    75 1   
    40    18    76 1   
    41    19    51 1   
    42    19    77 1   
    43    19    78 1   
    44    20    21 1   
    45    20    51 1   
    46    20    79 1   
    47    20    80 1   
    48    21    52 1   
    49    21    81 1   
    50    21    82 1   
    51    22    23 1   
    52    22    52 1   
    53    22    83 1   
    54    22    84 1   
    55    23    53 1   
    56    23    85 1   
    57    23    86 1   
    58    24    25 ar  
    59    24    40 ar  
    60    24    53 1   
    61    25    26 1   
    62    25    35 ar  
    63    26    27 2   
    64    26    30 1   
    65    27    45 1   
    66    27    87 1   
    67    28    29 1   
    68    28    45 1   
    69    28    54 2   
    70    29    30 ar  
    71    29    34 ar  
    72    30    31 ar  
    73    31    32 ar  
    74    31    91 1   
    75    32    33 ar  
    76    32    92 1   
    77    33    34 ar  
    78    33    93 1   
    79    34    94 1   
    80    35    36 ar  
    81    35    95 1   
    82    36    39 ar  
    83    36    46 1   
    84    37    38 1   
    85    37    59 1   
    86    37    96 1   
    87    37    97 1   
    88    38    98 1   
    89    38    99 1   
    90    38   100 1   
    91    39    40 ar  
    92    39   101 1   
    93    40   102 1   
    94    41    42 1   
    95    41    58 1   
    96    41   103 1   
    97    41   104 1   
    98    42   105 1   
    99    42   106 1   
   100    42   107 1   
   101    43    58 1   
   102    43   108 1   
   103    44   110 1   
   104    45   111 1   
   105    46    59 1   
   106    46   109 1   
   107    47    58 2   
   108    55    59 2   
   109    56    59 2   
   110    57    58 2   
   111    66   110 1   
   112    67   110 1   
   113    68   110 1   
   114    88   111 1   
   115    89   111 1   
   116    90   111 1   
@<TRIPOS>SUBSTRUCTURE
     1 XR7         1 TEMP              0 ****  ****    0 ROOT
