@<TRIPOS>MOLECULE
XR8
   68    72     1     0     0
SMALL
bcc


@<TRIPOS>ATOM
      1 C01         11.4690   -11.3390    30.2030 c3         1 XR8      -0.103100
      2 C02         11.2680   -11.0670    31.6890 c3         1 XR8       0.163000
      3 N03         10.8300    -9.6990    31.8720 ns         1 XR8      -0.575900
      4 C04         10.9040    -9.0660    33.0570 c          1 XR8       0.678700
      5 C05         10.2610    -7.7140    33.0870 ca         1 XR8      -0.107600
      6 C06         10.9570    -6.5950    33.5470 ca         1 XR8      -0.067300
      7 C07         12.3910    -6.6410    33.9960 c3         1 XR8      -0.042800
      8 C08         10.2630    -5.3850    33.5530 ca         1 XR8      -0.098000
      9 C09          8.9430    -5.2850    33.1570 ca         1 XR8      -0.177000
     10 C10          8.2420    -6.4130    32.7150 ca         1 XR8       0.159600
     11 N11          6.9130    -6.3100    32.3650 nu         1 XR8      -0.738600
     12 C12          6.2410    -7.3720    31.6850 cy         1 XR8       0.182500
     13 C13          6.5640    -7.7100    30.2110 cy         1 XR8       0.111800
     14 N14          5.1200    -7.8550    29.9750 n6         1 XR8      -0.785200
     15 C15          4.8220    -7.0770    31.1850 cy         1 XR8       0.111800
     16 C16          8.9340    -7.6250    32.6710 ca         1 XR8      -0.178000
     17 O17         11.4400    -9.5580    34.0390 o          1 XR8      -0.586100
     18 C18         10.2960   -12.0590    32.2930 ca         1 XR8      -0.094300
     19 C19         10.7730   -13.1520    33.0020 ca         1 XR8      -0.104000
     20 C20          9.9080   -14.1160    33.5260 ca         1 XR8      -0.004000
     21 C21         10.4140   -15.2640    34.2760 cc         1 XR8      -0.008100
     22 C22          9.7970   -15.9700    35.2740 cd         1 XR8      -0.145000
     23 C23         10.5890   -17.0270    35.7850 cd         1 XR8      -0.129000
     24 C24         11.8090   -17.1250    35.1810 cc         1 XR8      -0.065400
     25 C25         12.8920   -18.1280    35.4320 c3         1 XR8       0.244100
     26 N26         12.4840   -19.4650    35.0630 n3         1 XR8      -0.710600
     27 C27         12.2500   -19.6460    33.6400 c5         1 XR8       0.155300
     28 C28         12.1870   -21.1660    33.4690 c5         1 XR8      -0.078900
     29 C29         12.9660   -21.7230    34.6810 c5         1 XR8      -0.078900
     30 C30         13.4680   -20.4760    35.4060 c5         1 XR8       0.155300
     31 S31         11.9800   -15.9210    33.9670 ss         1 XR8      -0.097800
     32 C32          8.5350   -13.9570    33.3290 ca         1 XR8      -0.110000
     33 C33          8.0510   -12.8600    32.6330 ca         1 XR8      -0.128000
     34 C34          8.9230   -11.9150    32.1130 ca         1 XR8      -0.116000
     35 H1          11.8230   -12.3580    30.0540 hc         1 XR8       0.044033
     36 H2          10.5360   -11.2260    29.6480 hc         1 XR8       0.044033
     37 H3          12.2080   -10.6580    29.7800 hc         1 XR8       0.044033
     38 H4          12.2330   -11.1840    32.1900 h1         1 XR8       0.075700
     39 H5          10.3920    -9.2290    31.0960 hn         1 XR8       0.315500
     40 H6          13.0240    -7.1960    33.3030 hc         1 XR8       0.046700
     41 H7          12.7960    -5.6330    34.0740 hc         1 XR8       0.046700
     42 H8          12.4970    -7.1120    34.9740 hc         1 XR8       0.046700
     43 H9          10.7760    -4.4880    33.8790 ha         1 XR8       0.131000
     44 H10          8.4440    -4.3220    33.1880 ha         1 XR8       0.130000
     45 H11          6.6230    -5.3830    32.0930 hn         1 XR8       0.407800
     46 H12          6.2550    -8.2740    32.3020 h1         1 XR8       0.088700
     47 H13          7.1610    -8.6030    30.0090 h1         1 XR8       0.050950
     48 H14          7.0250    -6.8550    29.7030 h1         1 XR8       0.050950
     49 H15          4.7880    -7.4410    29.1140 hn         1 XR8       0.355800
     50 H17          4.6760    -6.0040    31.0050 h1         1 XR8       0.050950
     51 H18          3.9880    -7.4430    31.7860 h1         1 XR8       0.050950
     52 H19          8.4350    -8.5210    32.3240 ha         1 XR8       0.135000
     53 H20         11.8420   -13.2410    33.1650 ha         1 XR8       0.136000
     54 H21          8.8130   -15.7250    35.6510 ha         1 XR8       0.153000
     55 H22         10.2700   -17.6880    36.5790 ha         1 XR8       0.159000
     56 H23         13.1350   -18.1250    36.4980 h1         1 XR8       0.040700
     57 H24         13.8120   -17.8230    34.9050 h1         1 XR8       0.040700
     58 H26         13.0790   -19.2290    33.0420 h1         1 XR8       0.036700
     59 H27         11.3360   -19.1410    33.3220 h1         1 XR8       0.036700
     60 H28         11.1550   -21.5170    33.4780 hc         1 XR8       0.046450
     61 H29         12.6220   -21.4710    32.5190 hc         1 XR8       0.046450
     62 H30         12.3080   -22.3030    35.3270 hc         1 XR8       0.046450
     63 H31         13.7890   -22.3740    34.3880 hc         1 XR8       0.046450
     64 H32         13.5370   -20.6030    36.4890 h1         1 XR8       0.036700
     65 H33         14.4740   -20.2030    35.0430 h1         1 XR8       0.036700
     66 H34          7.8430   -14.6990    33.7060 ha         1 XR8       0.134000
     67 H35          6.9850   -12.7490    32.4850 ha         1 XR8       0.132000
     68 H36          8.5300   -11.0640    31.5690 ha         1 XR8       0.124000
@<TRIPOS>BOND
     1     1     2 1   
     2     1    35 1   
     3     1    36 1   
     4     1    37 1   
     5     2     3 1   
     6     2    18 1   
     7     2    38 1   
     8     3     4 1   
     9     3    39 1   
    10     4     5 1   
    11     4    17 2   
    12     5     6 ar  
    13     5    16 ar  
    14     6     7 1   
    15     6     8 ar  
    16     7    40 1   
    17     7    41 1   
    18     7    42 1   
    19     8     9 ar  
    20     8    43 1   
    21     9    10 ar  
    22     9    44 1   
    23    10    11 1   
    24    10    16 ar  
    25    11    12 1   
    26    11    45 1   
    27    12    13 1   
    28    12    15 1   
    29    12    46 1   
    30    13    14 1   
    31    13    47 1   
    32    13    48 1   
    33    14    15 1   
    34    14    49 1   
    35    15    50 1   
    36    15    51 1   
    37    16    52 1   
    38    18    19 ar  
    39    18    34 ar  
    40    19    20 ar  
    41    19    53 1   
    42    20    21 1   
    43    20    32 ar  
    44    21    22 2   
    45    21    31 1   
    46    22    23 1   
    47    22    54 1   
    48    23    24 2   
    49    23    55 1   
    50    24    25 1   
    51    24    31 1   
    52    25    26 1   
    53    25    56 1   
    54    25    57 1   
    55    26    27 1   
    56    26    30 1   
    57    27    28 1   
    58    27    58 1   
    59    27    59 1   
    60    28    29 1   
    61    28    60 1   
    62    28    61 1   
    63    29    30 1   
    64    29    62 1   
    65    29    63 1   
    66    30    64 1   
    67    30    65 1   
    68    32    33 ar  
    69    32    66 1   
    70    33    34 ar  
    71    33    67 1   
    72    34    68 1   
@<TRIPOS>SUBSTRUCTURE
     1 XR8         1 TEMP              0 ****  ****    0 ROOT
