@<TRIPOS>MOLECULE
XR8
   68    72     1     0     0
SMALL
No Charge or Current Charge


@<TRIPOS>ATOM
      1 C01         11.4400   -10.9100    29.8600 c3         1 XR8      -0.103100
      2 C02         11.2040   -11.0640    31.3770 c3         1 XR8       0.163000
      3 N03         10.6610    -9.8380    31.9560 ns         1 XR8      -0.508900
      4 C04         11.3860    -8.7000    32.2370 c          1 XR8       0.611700
      5 C05         10.5800    -7.5230    32.7810 ca         1 XR8      -0.107600
      6 C06         11.1810    -6.4530    33.5110 ca         1 XR8      -0.067300
      7 C07         12.6710    -6.4150    33.8490 c3         1 XR8      -0.042800
      8 C08         10.3810    -5.3900    33.9760 ca         1 XR8      -0.080000
      9 C09          9.0000    -5.3670    33.7340 ca         1 XR8      -0.159000
     10 C10          8.3930    -6.4050    33.0220 ca         1 XR8       0.298000
     11 N11          7.0170    -6.3520    32.7900 nu         1 XR8      -0.932200
     12 C12          6.1720    -7.2940    32.0440 cy         1 XR8       0.182500
     13 C13          6.2810    -7.3400    30.4760 cy         1 XR8       0.111800
     14 N14          4.8250    -7.7080    30.4970 n6         1 XR8      -0.840400
     15 C15          4.6740    -6.9120    31.7610 cy         1 XR8       0.111800
     16 C16          9.1780    -7.4720    32.5520 ca         1 XR8      -0.160000
     17 O17         12.5880    -8.6550    32.0140 o          1 XR8      -0.586100
     18 C18         10.2850   -12.2410    31.7010 ca         1 XR8      -0.094300
     19 C19         10.7420   -13.2820    32.5340 ca         1 XR8      -0.086000
     20 C20          9.9090   -14.3730    32.8570 ca         1 XR8      -0.004000
     21 C21         10.4130   -15.4470    33.7200 cc         1 XR8      -0.153000
     22 C22          9.5870   -16.1700    34.5450 cd         1 XR8      -0.127000
     23 C23         10.2920   -17.1440    35.3050 cd         1 XR8      -0.111000
     24 C24         11.6470   -17.1610    35.0680 cc         1 XR8      -0.210300
     25 C25         12.6850   -18.0530    35.6920 c3         1 XR8       0.244100
     26 N26         12.4420   -19.4830    35.4150 n3         1 XR8      -0.710600
     27 C27         12.4850   -19.8730    33.9910 c5         1 XR8       0.155300
     28 C28         12.3170   -21.4140    34.0810 c5         1 XR8      -0.078900
     29 C29         12.9180   -21.7770    35.4770 c5         1 XR8      -0.078900
     30 C30         13.4010   -20.4140    36.0400 c5         1 XR8       0.155300
     31 S31         12.0970   -15.9370    33.8810 ss         1 XR8       0.192000
     32 C32          8.6030   -14.4140    32.3260 ca         1 XR8      -0.092000
     33 C33          8.1380   -13.3790    31.4980 ca         1 XR8      -0.110000
     34 C34          8.9740   -12.2950    31.1880 ca         1 XR8      -0.098000
     35 H1          11.8280   -11.8450    29.4380 hc         1 XR8       0.044033
     36 H2          10.5120   -10.6540    29.3370 hc         1 XR8       0.044033
     37 H3          12.1730   -10.1200    29.6590 hc         1 XR8       0.044033
     38 H4          12.1800   -11.2520    31.8450 h1         1 XR8       0.075700
     39 H5           9.6800    -9.8220    32.1980 hn         1 XR8       0.315500
     40 H6          13.2760    -6.2460    32.9510 hc         1 XR8       0.046700
     41 H7          12.9090    -5.6110    34.5550 hc         1 XR8       0.046700
     42 H8          12.9980    -7.3530    34.3140 hc         1 XR8       0.046700
     43 H9          10.8300    -4.5720    34.5360 ha         1 XR8       0.113000
     44 H10          8.4050    -4.5360    34.1030 ha         1 XR8       0.112000
     45 H11          6.5530    -5.5310    33.1850 hn         1 XR8       0.463000
     46 H12          6.2650    -8.2890    32.5010 h1         1 XR8       0.088700
     47 H13          6.9740    -8.0950    30.0850 h1         1 XR8       0.050950
     48 H14          6.5100    -6.3610    30.0340 h1         1 XR8       0.050950
     49 H15          4.2460    -7.4250    29.6950 hn         1 XR8       0.411000
     50 H17          4.5230    -5.8340    31.6180 h1         1 XR8       0.050950
     51 H18          3.9570    -7.2930    32.4990 h1         1 XR8       0.050950
     52 H19          8.6900    -8.2550    31.9840 ha         1 XR8       0.117000
     53 H20         11.7490   -13.2370    32.9400 ha         1 XR8       0.118000
     54 H21          8.5160   -16.0200    34.6270 ha         1 XR8       0.135000
     55 H22          9.8080   -17.8150    36.0090 ha         1 XR8       0.141000
     56 H23         12.6790   -17.8790    36.7770 h1         1 XR8       0.040700
     57 H24         13.6780   -17.7600    35.3230 h1         1 XR8       0.040700
     58 H26         13.4500   -19.6070    33.5350 h1         1 XR8       0.036700
     59 H27         11.6870   -19.4060    33.3980 h1         1 XR8       0.036700
     60 H28         11.2590   -21.6950    34.0290 hc         1 XR8       0.046450
     61 H29         12.8280   -21.9250    33.2580 hc         1 XR8       0.046450
     62 H30         12.1540   -22.2190    36.1260 hc         1 XR8       0.046450
     63 H31         13.7390   -22.5000    35.4060 hc         1 XR8       0.046450
     64 H32         13.3660   -20.3840    37.1370 h1         1 XR8       0.036700
     65 H33         14.4320   -20.1970    35.7230 h1         1 XR8       0.036700
     66 H34          7.9450   -15.2520    32.5410 ha         1 XR8       0.116000
     67 H35          7.1290   -13.4190    31.0940 ha         1 XR8       0.114000
     68 H36          8.5990   -11.4990    30.5490 ha         1 XR8       0.106000
@<TRIPOS>BOND
     1     1     2 1   
     2     1    35 1   
     3     1    36 1   
     4     1    37 1   
     5     2     3 1   
     6     2    18 1   
     7     2    38 1   
     8     3     4 1   
     9     3    39 1   
    10     4     5 1   
    11     4    17 2   
    12     5     6 ar  
    13     5    16 ar  
    14     6     7 1   
    15     6     8 ar  
    16     7    40 1   
    17     7    41 1   
    18     7    42 1   
    19     8     9 ar  
    20     8    43 1   
    21     9    10 ar  
    22     9    44 1   
    23    10    11 1   
    24    10    16 ar  
    25    11    12 1   
    26    11    45 1   
    27    12    13 1   
    28    12    15 1   
    29    12    46 1   
    30    13    14 1   
    31    13    47 1   
    32    13    48 1   
    33    14    15 1   
    34    14    49 1   
    35    15    50 1   
    36    15    51 1   
    37    16    52 1   
    38    18    19 ar  
    39    18    34 ar  
    40    19    20 ar  
    41    19    53 1   
    42    20    21 1   
    43    20    32 ar  
    44    21    22 2   
    45    21    31 1   
    46    22    23 1   
    47    22    54 1   
    48    23    24 2   
    49    23    55 1   
    50    24    25 1   
    51    24    31 1   
    52    25    26 1   
    53    25    56 1   
    54    25    57 1   
    55    26    27 1   
    56    26    30 1   
    57    27    28 1   
    58    27    58 1   
    59    27    59 1   
    60    28    29 1   
    61    28    60 1   
    62    28    61 1   
    63    29    30 1   
    64    29    62 1   
    65    29    63 1   
    66    30    64 1   
    67    30    65 1   
    68    32    33 ar  
    69    32    66 1   
    70    33    34 ar  
    71    33    67 1   
    72    34    68 1   
@<TRIPOS>SUBSTRUCTURE
     1 XR8         1 TEMP              0 ****  ****    0 ROOT
