@<TRIPOS>MOLECULE
XRA
   49    52     1     0     0
SMALL
No Charge or Current Charge


@<TRIPOS>ATOM
      1 N1          -1.1970    -0.2890    -0.3690 nb         1 XRA      -0.293000
      2 O1          -5.4390    -2.5640    -0.0010 os         1 XRA      -0.317100
      3 C2          -2.5310    -0.2450    -0.1940 ca         1 XRA       0.118000
      4 N2          -1.0570     2.0950    -0.2010 nb         1 XRA      -0.339000
      5 O2          -6.7180    -0.1660     0.3380 os         1 XRA      -0.319100
      6 C3          -3.1880     0.9910    -0.0150 ca         1 XRA      -0.219000
      7 N3          -2.8580     3.4040     0.1460 nv         1 XRA      -1.072900
      8 O3           5.8460     1.7680     0.0390 o          1 XRA      -0.589100
      9 C4          -2.3770     2.1450    -0.0270 ca         1 XRA       0.436900
     10 N4           0.8960     0.8090    -0.5440 nh         1 XRA      -0.771300
     11 O4           5.4170    -1.8590     0.3540 os         1 XRA      -0.229000
     12 N5           3.8640     0.6830    -0.3460 n          1 XRA      -0.397800
     13 C6          -0.5150     0.8750    -0.3720 ca         1 XRA       0.432900
     14 C7          -3.2810    -1.4320    -0.1890 ca         1 XRA      -0.205000
     15 C8          -4.6810    -1.4030    -0.0090 ca         1 XRA       0.167100
     16 C9          -5.3420    -0.1650     0.1670 ca         1 XRA       0.088100
     17 C10         -4.5910     1.0330     0.1630 ca         1 XRA      -0.131000
     18 C12         -4.8580    -3.8690    -0.1730 c3         1 XRA       0.142900
     19 C14         -7.4780     1.0410     0.5230 c3         1 XRA       0.144900
     20 C17          1.6990     1.9930    -0.9600 c6         1 XRA       0.196300
     21 C18          3.1110     1.9820    -0.3200 c6         1 XRA       0.085000
     22 C20          3.0210    -0.5610    -0.3520 c6         1 XRA       0.085000
     23 C21          1.5860    -0.4520    -0.9400 c6         1 XRA       0.196300
     24 C22          5.2500     0.6970    -0.0050 c          1 XRA       0.542600
     25 C23          5.9680    -0.5910     0.3010 cc         1 XRA       0.058500
     26 C25          6.4290    -2.7310     0.6920 cc         1 XRA       0.137900
     27 C26          7.5930    -2.0330     0.8550 cd         1 XRA      -0.199000
     28 C27          7.3020    -0.6750     0.6110 cd         1 XRA      -0.114000
     29 HN3         -2.1830     4.1410     0.3290 hn         1 XRA       0.490500
     30 HN3A        -3.7760     3.5200     0.5620 hn         1 XRA       0.490500
     31 H7          -2.7540    -2.3710    -0.3270 ha         1 XRA       0.138000
     32 H10         -5.0880     1.9880     0.2930 ha         1 XRA       0.109000
     33 H12         -5.6380    -4.6390    -0.1330 h1         1 XRA       0.044033
     34 H12A        -4.3540    -3.9470    -1.1440 h1         1 XRA       0.044033
     35 H12B        -4.1310    -4.0800     0.6220 h1         1 XRA       0.044033
     36 H14         -7.3690     1.7070    -0.3430 h1         1 XRA       0.038700
     37 H14A        -8.5430     0.8050     0.6380 h1         1 XRA       0.038700
     38 H14B        -7.1490     1.5750     1.4240 h1         1 XRA       0.038700
     39 H17          1.8090     1.9980    -2.0550 h1         1 XRA       0.064200
     40 H17A         1.2200     2.9430    -0.6860 h1         1 XRA       0.064200
     41 H18          3.0060     2.2860     0.7310 h1         1 XRA       0.067950
     42 H18A         3.7070     2.7630    -0.8150 h1         1 XRA       0.067950
     43 H20          3.5260    -1.3380    -0.9410 h1         1 XRA       0.067950
     44 H20A         2.9400    -0.9240     0.6820 h1         1 XRA       0.067950
     45 H21          1.0340    -1.3460    -0.6180 h1         1 XRA       0.064200
     46 H21A         1.6530    -0.5000    -2.0370 h1         1 XRA       0.064200
     47 H25          6.1890    -3.7820     0.7800 h4         1 XRA       0.054100
     48 H26          8.5560    -2.4530     1.1250 ha         1 XRA       0.146000
     49 H27          8.0010     0.1560     0.6600 ha         1 XRA       0.156000
@<TRIPOS>BOND
     1     1     3 ar  
     2     1    13 ar  
     3     2    15 1   
     4     2    18 1   
     5     3     6 ar  
     6     3    14 ar  
     7     4     9 ar  
     8     4    13 ar  
     9     5    16 1   
    10     5    19 1   
    11     6     9 ar  
    12     6    17 ar  
    13     7     9 1   
    14     7    29 1   
    15     7    30 1   
    16     8    24 2   
    17    10    13 1   
    18    10    20 1   
    19    10    23 1   
    20    11    25 1   
    21    11    26 1   
    22    12    21 1   
    23    12    22 1   
    24    12    24 1   
    25    14    15 ar  
    26    14    31 1   
    27    15    16 ar  
    28    16    17 ar  
    29    17    32 1   
    30    18    33 1   
    31    18    34 1   
    32    18    35 1   
    33    19    36 1   
    34    19    37 1   
    35    19    38 1   
    36    20    21 1   
    37    20    39 1   
    38    20    40 1   
    39    21    41 1   
    40    21    42 1   
    41    22    23 1   
    42    22    43 1   
    43    22    44 1   
    44    23    45 1   
    45    23    46 1   
    46    24    25 1   
    47    25    28 2   
    48    26    27 2   
    49    26    47 1   
    50    27    28 1   
    51    27    48 1   
    52    28    49 1   
@<TRIPOS>SUBSTRUCTURE
     1 XRA         1 TEMP              0 ****  ****    0 ROOT
