@<TRIPOS>MOLECULE
XRA
   49    52     1     0     0
SMALL
abcg2


@<TRIPOS>ATOM
      1 N1          -1.0630    -0.2980     0.0560 nb         1 XRA      -0.293000
      2 O1          -5.3180    -2.4690    -0.1630 os         1 XRA      -0.317100
      3 C2          -2.4100    -0.2190    -0.0160 ca         1 XRA       0.118000
      4 N2          -0.9520     2.0700     0.0420 nb         1 XRA      -0.339000
      5 O2          -6.5580    -0.2380    -0.3070 os         1 XRA      -0.319100
      6 C3          -3.0950     1.0040    -0.0770 ca         1 XRA      -0.219000
      7 N3          -2.7870     3.4030    -0.0930 nv         1 XRA      -1.072900
      8 O3           5.3460     1.6750    -0.7080 o          1 XRA      -0.589100
      9 C4          -2.2630     2.1680    -0.0330 ca         1 XRA       0.436900
     10 N4           0.9580     0.7930     0.1710 nh         1 XRA      -0.771300
     11 O4           5.7260    -1.4760     0.7580 os         1 XRA      -0.229000
     12 N5           3.7610     0.6510     0.5480 n          1 XRA      -0.397800
     13 C6          -0.4060     0.8420     0.0780 ca         1 XRA       0.432900
     14 C7          -3.1600    -1.4170    -0.0360 ca         1 XRA      -0.205000
     15 C8          -4.5280    -1.3900    -0.1310 ca         1 XRA       0.167100
     16 C9          -5.2190    -0.1410    -0.2090 ca         1 XRA       0.088100
     17 C10         -4.5040     1.0250    -0.1840 ca         1 XRA      -0.131000
     18 C12         -4.7100    -3.7450    -0.0950 c3         1 XRA       0.142900
     19 C14         -7.2960     0.9570    -0.4450 c3         1 XRA       0.144900
     20 C17          1.7750     1.9680    -0.0530 c6         1 XRA       0.196300
     21 C18          3.0380     1.8890     0.7860 c6         1 XRA       0.085000
     22 C20          2.9330    -0.5160     0.8050 c6         1 XRA       0.085000
     23 C21          1.6570    -0.4590    -0.0220 c6         1 XRA       0.196300
     24 C22          4.9140     0.6700    -0.1560 c          1 XRA       0.542600
     25 C23          5.7290    -0.5590    -0.2360 cc         1 XRA       0.058500
     26 C25          6.6200    -2.4260     0.4360 cc         1 XRA       0.137900
     27 C26          7.2060    -2.1420    -0.7530 cd         1 XRA      -0.199000
     28 C27          6.6320    -0.9160    -1.1880 cd         1 XRA      -0.114000
     29 HN3         -2.1780     4.1880     0.0710 hn         1 XRA       0.490500
     30 HN3A        -3.7680     3.5660     0.0460 hn         1 XRA       0.490500
     31 H7          -2.6130    -2.3480     0.0210 ha         1 XRA       0.138000
     32 H10         -5.0290     1.9680    -0.2540 ha         1 XRA       0.109000
     33 H12         -5.5140    -4.4730    -0.1520 h1         1 XRA       0.044033
     34 H12A        -4.0210    -3.9100    -0.9260 h1         1 XRA       0.044033
     35 H12B        -4.1690    -3.8850     0.8450 h1         1 XRA       0.044033
     36 H14         -7.0140     1.5070    -1.3470 h1         1 XRA       0.038700
     37 H14A        -8.3420     0.6690    -0.5210 h1         1 XRA       0.038700
     38 H14B        -7.1740     1.6170     0.4190 h1         1 XRA       0.038700
     39 H17          2.0430     2.0590    -1.1140 h1         1 XRA       0.064200
     40 H17A         1.2180     2.8590     0.2230 h1         1 XRA       0.064200
     41 H18          2.7720     1.9220     1.8470 h1         1 XRA       0.067950
     42 H18A         3.6790     2.7400     0.5750 h1         1 XRA       0.067950
     43 H20          3.4500    -1.4380     0.5620 h1         1 XRA       0.067950
     44 H20A         2.6860    -0.5460     1.8700 h1         1 XRA       0.067950
     45 H21          1.0120    -1.2830     0.2700 h1         1 XRA       0.064200
     46 H21A         1.9100    -0.5990    -1.0820 h1         1 XRA       0.064200
     47 H25          6.7410    -3.2330     1.1400 h4         1 XRA       0.054100
     48 H26          7.9570    -2.7290    -1.2540 ha         1 XRA       0.146000
     49 H27          6.8560    -0.3740    -2.0920 ha         1 XRA       0.156000
@<TRIPOS>BOND
     1     1     3 ar  
     2     1    13 ar  
     3     2    15 1   
     4     2    18 1   
     5     3     6 ar  
     6     3    14 ar  
     7     4     9 ar  
     8     4    13 ar  
     9     5    16 1   
    10     5    19 1   
    11     6     9 ar  
    12     6    17 ar  
    13     7     9 1   
    14     7    29 1   
    15     7    30 1   
    16     8    24 2   
    17    10    13 1   
    18    10    20 1   
    19    10    23 1   
    20    11    25 1   
    21    11    26 1   
    22    12    21 1   
    23    12    22 1   
    24    12    24 1   
    25    14    15 ar  
    26    14    31 1   
    27    15    16 ar  
    28    16    17 ar  
    29    17    32 1   
    30    18    33 1   
    31    18    34 1   
    32    18    35 1   
    33    19    36 1   
    34    19    37 1   
    35    19    38 1   
    36    20    21 1   
    37    20    39 1   
    38    20    40 1   
    39    21    41 1   
    40    21    42 1   
    41    22    23 1   
    42    22    43 1   
    43    22    44 1   
    44    23    45 1   
    45    23    46 1   
    46    24    25 1   
    47    25    28 2   
    48    26    27 2   
    49    26    47 1   
    50    27    28 1   
    51    27    48 1   
    52    28    49 1   
@<TRIPOS>SUBSTRUCTURE
     1 XRA         1 TEMP              0 ****  ****    0 ROOT
