@<TRIPOS>MOLECULE
XRB
   65    68     1     0     0
SMALL
abcg2


@<TRIPOS>ATOM
      1 N           46.1910   -30.3410    40.6940 n1         1 XRB      -0.446000
      2 C           49.3520   -24.7970    35.9710 c3         1 XRB      -0.046300
      3 O           52.0210   -24.5810    36.8890 os         1 XRB      -0.367400
      4 C1          49.8640   -25.6090    37.1260 ca         1 XRB      -0.064800
      5 C10         51.1940   -25.5040    37.5380 ca         1 XRB       0.117100
      6 C11         52.6980   -25.0050    35.7960 ca         1 XRB       0.383300
      7 C12         53.5480   -24.1110    35.1460 ca         1 XRB      -0.284000
      8 C13         54.1900   -24.6240    34.0330 ca         1 XRB       0.163900
      9 C14         53.1880   -26.6390    34.3060 ca         1 XRB       0.406900
     10 C15         52.0750   -28.8410    34.3930 ca         1 XRB       0.260000
     11 C16         51.9580   -29.0790    35.7550 ca         1 XRB      -0.025000
     12 C17         51.0140   -29.9910    36.2370 ca         1 XRB      -0.063000
     13 C18         51.0580   -30.3110    37.6210 cg         1 XRB       0.341000
     14 C19         50.1290   -30.6740    35.3620 ca         1 XRB       0.339000
     15 C2          49.0520   -26.5060    37.8050 ca         1 XRB      -0.086000
     16 C20         48.2760   -31.1540    36.9390 c6         1 XRB       0.180800
     17 C21         48.1060   -32.3400    37.8940 c6         1 XRB       0.201300
     18 C22         50.8160   -34.1880    36.9990 c3         1 XRB      -0.376100
     19 C23         47.6410   -33.4450    35.7390 c6         1 XRB       0.201300
     20 C24         48.5290   -32.4800    34.9310 c6         1 XRB       0.180800
     21 C25         50.3250   -30.4710    33.9890 ca         1 XRB      -0.164000
     22 C26         51.2700   -29.5750    33.5190 ca         1 XRB      -0.088000
     23 C3          49.5450   -27.2740    38.8680 ca         1 XRB      -0.072800
     24 C4          48.7350   -28.2420    39.5900 ce         1 XRB      -0.087200
     25 C5          47.4460   -28.5440    39.3500 cf         1 XRB      -0.132700
     26 C6          46.7650   -29.5320    40.1010 ch         1 XRB       0.268700
     27 C7          50.8830   -27.1210    39.2480 ca         1 XRB      -0.086000
     28 C8          51.7320   -26.2380    38.5890 ca         1 XRB      -0.064800
     29 C9          53.1780   -26.0990    38.9670 c3         1 XRB      -0.046300
     30 N1          54.0300   -25.8760    33.5920 nb         1 XRB      -0.255000
     31 N2          53.0020   -27.9180    33.8690 nu         1 XRB      -0.932900
     32 N3          51.1340   -30.6080    38.7350 n1         1 XRB      -0.475000
     33 N4          49.1620   -31.5360    35.8430 nh         1 XRB      -0.829400
     34 N5          48.1010   -33.6000    37.1220 n3         1 XRB      -0.747500
     35 N6          52.5170   -26.2450    35.3960 nb         1 XRB      -0.307000
     36 O1          49.2140   -34.8730    38.9320 o          1 XRB      -0.542000
     37 O2          48.8780   -35.9140    36.6940 o          1 XRB      -0.542000
     38 S           49.2020   -34.7510    37.4910 s6         1 XRB       1.240100
     39 H1          49.8480   -25.0880    35.0420 hc         1 XRB       0.050533
     40 H2          48.2800   -24.9440    35.8460 hc         1 XRB       0.050533
     41 H3          49.5450   -23.7340    36.1200 hc         1 XRB       0.050533
     42 H4          53.6910   -23.0980    35.4890 ha         1 XRB       0.151000
     43 H5          54.8690   -24.0000    33.4620 h4         1 XRB       0.029100
     44 H6          52.6060   -28.5760    36.4560 ha         1 XRB       0.145000
     45 H7          48.0220   -26.6070    37.4900 ha         1 XRB       0.121500
     46 H8          48.6730   -30.3020    37.4780 h1         1 XRB       0.053450
     47 H9          47.3070   -30.8470    36.5300 h1         1 XRB       0.053450
     48 H10         48.9230   -32.3620    38.6100 h1         1 XRB       0.078950
     49 H11         47.1710   -32.2490    38.4480 h1         1 XRB       0.078950
     50 H12         51.0380   -33.2580    37.5180 h1         1 XRB       0.100700
     51 H13         51.5220   -34.9660    37.2900 h1         1 XRB       0.100700
     52 H14         50.8290   -34.0430    35.9220 h1         1 XRB       0.100700
     53 H15         46.6210   -33.0660    35.7950 h1         1 XRB       0.078950
     54 H16         47.6030   -34.4170    35.2590 h1         1 XRB       0.078950
     55 H17         47.9040   -31.9770    34.1810 h1         1 XRB       0.053450
     56 H18         49.3100   -33.0270    34.4010 h1         1 XRB       0.053450
     57 H19         49.7000   -30.9870    33.2760 ha         1 XRB       0.122000
     58 H20         51.3660   -29.4160    32.4520 ha         1 XRB       0.120000
     59 H21         49.2450   -28.7740    40.3850 ha         1 XRB       0.194000
     60 H22         46.8670   -28.0670    38.5690 ha         1 XRB       0.198000
     61 H23         51.2730   -27.7170    40.0640 ha         1 XRB       0.121500
     62 H24         53.4300   -25.0610    39.1910 hc         1 XRB       0.050533
     63 H25         53.4050   -26.7100    39.8400 hc         1 XRB       0.050533
     64 H26         53.8270   -26.4190    38.1490 hc         1 XRB       0.050533
     65 H27         53.3790   -28.1120    32.9540 hn         1 XRB       0.515000
@<TRIPOS>BOND
     1     1    26 3   
     2     2     4 1   
     3     2    39 1   
     4     2    40 1   
     5     2    41 1   
     6     3     5 1   
     7     3     6 1   
     8     4     5 ar  
     9     4    15 ar  
    10     5    28 ar  
    11     6     7 ar  
    12     6    35 ar  
    13     7     8 ar  
    14     7    42 1   
    15     8    30 ar  
    16     8    43 1   
    17     9    30 ar  
    18     9    31 1   
    19     9    35 ar  
    20    10    11 ar  
    21    10    22 ar  
    22    10    31 1   
    23    11    12 ar  
    24    11    44 1   
    25    12    13 1   
    26    12    14 ar  
    27    13    32 3   
    28    14    21 ar  
    29    14    33 1   
    30    15    23 ar  
    31    15    45 1   
    32    16    17 1   
    33    16    33 1   
    34    16    46 1   
    35    16    47 1   
    36    17    34 1   
    37    17    48 1   
    38    17    49 1   
    39    18    38 1   
    40    18    50 1   
    41    18    51 1   
    42    18    52 1   
    43    19    20 1   
    44    19    34 1   
    45    19    53 1   
    46    19    54 1   
    47    20    33 1   
    48    20    55 1   
    49    20    56 1   
    50    21    22 ar  
    51    21    57 1   
    52    22    58 1   
    53    23    24 1   
    54    23    27 ar  
    55    24    25 2   
    56    24    59 1   
    57    25    26 1   
    58    25    60 1   
    59    27    28 ar  
    60    27    61 1   
    61    28    29 1   
    62    29    62 1   
    63    29    63 1   
    64    29    64 1   
    65    31    65 1   
    66    34    38 1   
    67    36    38 2   
    68    37    38 2   
@<TRIPOS>SUBSTRUCTURE
     1 XRB         1 TEMP              0 ****  ****    0 ROOT
