@<TRIPOS>MOLECULE
XRB
   65    68     1     0     0
SMALL
No Charge or Current Charge


@<TRIPOS>ATOM
      1 N           46.3940   -30.6000    40.4180 n1         1 XRB      -0.446000
      2 C           49.4340   -24.2790    36.5010 c3         1 XRB      -0.046300
      3 O           52.2650   -24.4620    37.0030 os         1 XRB      -0.367400
      4 C1          50.0440   -25.2880    37.4680 ca         1 XRB      -0.064800
      5 C10         51.4340   -25.3030    37.7150 ca         1 XRB       0.117100
      6 C11         52.7620   -24.8570    35.7800 ca         1 XRB       0.383300
      7 C12         53.6050   -23.9940    35.0690 ca         1 XRB      -0.284000
      8 C13         54.0850   -24.4340    33.8230 ca         1 XRB       0.163900
      9 C14         52.9490   -26.3980    34.0960 ca         1 XRB       0.406900
     10 C15         51.7980   -28.6750    34.1130 ca         1 XRB       0.260000
     11 C16         51.8720   -29.0330    35.4750 ca         1 XRB      -0.025000
     12 C17         51.0590   -30.0550    36.0030 ca         1 XRB      -0.063000
     13 C18         51.1870   -30.3760    37.3970 cg         1 XRB       0.341000
     14 C19         50.1530   -30.7440    35.1640 ca         1 XRB       0.339000
     15 C2          49.2210   -26.2460    38.0900 ca         1 XRB      -0.086000
     16 C20         48.1160   -31.3760    36.5170 c6         1 XRB       0.180800
     17 C21         47.6080   -32.5230    37.4660 c6         1 XRB       0.201300
     18 C22         50.3570   -33.9320    38.1880 c3         1 XRB      -0.376100
     19 C23         47.9520   -33.9340    35.4640 c6         1 XRB       0.201300
     20 C24         49.1600   -33.0790    34.9600 c6         1 XRB       0.180800
     21 C25         50.0980   -30.3970    33.8000 ca         1 XRB      -0.164000
     22 C26         50.9180   -29.3800    33.2770 ca         1 XRB      -0.088000
     23 C3          49.7700   -27.2140    38.9550 ca         1 XRB      -0.072800
     24 C4          48.9260   -28.2810    39.5710 ce         1 XRB      -0.087200
     25 C5          47.6340   -28.6190    39.2970 cf         1 XRB      -0.132700
     26 C6          46.9420   -29.6930    39.9310 ch         1 XRB       0.268700
     27 C7          51.1520   -27.1930    39.2200 ca         1 XRB      -0.086000
     28 C8          51.9920   -26.2470    38.6040 ca         1 XRB      -0.064800
     29 C9          53.4940   -26.2830    38.8630 c3         1 XRB      -0.046300
     30 N1          53.7520   -25.6440    33.3280 nb         1 XRB      -0.255000
     31 N2          52.5700   -27.6290    33.5810 nu         1 XRB      -0.932900
     32 N3          51.3100   -30.6170    38.5330 n1         1 XRB      -0.475000
     33 N4          49.2910   -31.7530    35.6630 nh         1 XRB      -0.829400
     34 N5          47.8260   -33.9150    36.9510 n3         1 XRB      -0.747500
     35 N6          52.4340   -26.0610    35.2820 nb         1 XRB      -0.307000
     36 O1          48.2240   -35.2490    39.1000 o          1 XRB      -0.542000
     37 O2          49.3120   -36.0050    36.9460 o          1 XRB      -0.542000
     38 S           48.9080   -34.9190    37.8460 s6         1 XRB       1.240100
     39 H1          49.6660   -24.5430    35.4630 hc         1 XRB       0.050533
     40 H2          48.3420   -24.2320    36.5960 hc         1 XRB       0.050533
     41 H3          49.8200   -23.2690    36.6860 hc         1 XRB       0.050533
     42 H4          53.8730   -23.0200    35.4650 ha         1 XRB       0.151000
     43 H5          54.7410   -23.8140    33.2140 h4         1 XRB       0.029100
     44 H6          52.5730   -28.5190    36.1260 ha         1 XRB       0.145000
     45 H7          48.1550   -26.2400    37.8810 ha         1 XRB       0.121500
     46 H8          48.3440   -30.4920    37.1290 h1         1 XRB       0.053450
     47 H9          47.2830   -31.0880    35.8590 h1         1 XRB       0.053450
     48 H10         48.0700   -32.3870    38.4540 h1         1 XRB       0.078950
     49 H11         46.5340   -32.3590    37.6300 h1         1 XRB       0.078950
     50 H12         50.0670   -33.1160    38.8560 h1         1 XRB       0.100700
     51 H13         51.0860   -34.5880    38.6730 h1         1 XRB       0.100700
     52 H14         50.7440   -33.5520    37.2400 h1         1 XRB       0.100700
     53 H15         47.0380   -33.5160    35.0180 h1         1 XRB       0.078950
     54 H16         48.0330   -34.9570    35.0690 h1         1 XRB       0.078950
     55 H17         49.0430   -32.9410    33.8760 h1         1 XRB       0.053450
     56 H18         50.0830   -33.6590    35.1040 h1         1 XRB       0.053450
     57 H19         49.3990   -30.8990    33.1400 ha         1 XRB       0.122000
     58 H20         50.8440   -29.1200    32.2240 ha         1 XRB       0.120000
     59 H21         49.4490   -28.8760    40.3230 ha         1 XRB       0.194000
     60 H22         47.0700   -28.0730    38.5430 ha         1 XRB       0.198000
     61 H23         51.5840   -27.9370    39.8860 ha         1 XRB       0.121500
     62 H24         53.8820   -25.2800    39.0770 hc         1 XRB       0.050533
     63 H25         53.7440   -26.9200    39.7200 hc         1 XRB       0.050533
     64 H26         54.0320   -26.6720    37.9920 hc         1 XRB       0.050533
     65 H27         52.7630   -27.7090    32.5820 hn         1 XRB       0.515000
@<TRIPOS>BOND
     1     1    26 3   
     2     2     4 1   
     3     2    39 1   
     4     2    40 1   
     5     2    41 1   
     6     3     5 1   
     7     3     6 1   
     8     4     5 ar  
     9     4    15 ar  
    10     5    28 ar  
    11     6     7 ar  
    12     6    35 ar  
    13     7     8 ar  
    14     7    42 1   
    15     8    30 ar  
    16     8    43 1   
    17     9    30 ar  
    18     9    31 1   
    19     9    35 ar  
    20    10    11 ar  
    21    10    22 ar  
    22    10    31 1   
    23    11    12 ar  
    24    11    44 1   
    25    12    13 1   
    26    12    14 ar  
    27    13    32 3   
    28    14    21 ar  
    29    14    33 1   
    30    15    23 ar  
    31    15    45 1   
    32    16    17 1   
    33    16    33 1   
    34    16    46 1   
    35    16    47 1   
    36    17    34 1   
    37    17    48 1   
    38    17    49 1   
    39    18    38 1   
    40    18    50 1   
    41    18    51 1   
    42    18    52 1   
    43    19    20 1   
    44    19    34 1   
    45    19    53 1   
    46    19    54 1   
    47    20    33 1   
    48    20    55 1   
    49    20    56 1   
    50    21    22 ar  
    51    21    57 1   
    52    22    58 1   
    53    23    24 1   
    54    23    27 ar  
    55    24    25 2   
    56    24    59 1   
    57    25    26 1   
    58    25    60 1   
    59    27    28 ar  
    60    27    61 1   
    61    28    29 1   
    62    29    62 1   
    63    29    63 1   
    64    29    64 1   
    65    31    65 1   
    66    34    38 1   
    67    36    38 2   
    68    37    38 2   
@<TRIPOS>SUBSTRUCTURE
     1 XRB         1 TEMP              0 ****  ****    0 ROOT
