@<TRIPOS>MOLECULE
XRG
   19    18     1     0     0
SMALL
bcc


@<TRIPOS>ATOM
      1 CAB          3.6530     0.2590    -0.1030 c3         1 XRG       0.110300
      2 NAF          2.2920     0.6520     0.1670 ns         1 XRG      -0.600900
      3 CAI          1.2640    -0.2070    -0.0090 c          1 XRG       0.803100
      4 OAD          1.4290    -1.3740    -0.3170 o          1 XRG      -0.577100
      5 NAG          0.0290     0.3830     0.1900 ns         1 XRG      -0.534400
      6 CAH         -1.2170    -0.2410     0.1690 c2         1 XRG       0.678800
      7 NAC         -1.3470    -1.4900     0.3790 n2         1 XRG      -0.820100
      8 NAE         -2.2200     0.6740    -0.0220 nu         1 XRG      -0.906200
      9 CAA         -3.5940     0.2460    -0.1020 c3         1 XRG       0.198100
     10 HAB          3.9480    -0.6050     0.4920 h1         1 XRG       0.039700
     11 HABA         3.8180     0.0210    -1.1560 h1         1 XRG       0.039700
     12 HABB         4.3040     1.0870     0.1620 h1         1 XRG       0.039700
     13 HNAF         2.1170     1.6230     0.3580 hn         1 XRG       0.305500
     14 HNAG         0.0140     1.3770     0.3520 hn         1 XRG       0.309500
     15 HNAC        -2.3130    -1.7770     0.2670 hn         1 XRG       0.386400
     16 HNAE        -1.9870     1.4850    -0.5730 hn         1 XRG       0.411800
     17 HAA         -3.7900    -0.4300    -0.9410 h1         1 XRG       0.038700
     18 HAAA        -3.8970    -0.2550     0.8170 h1         1 XRG       0.038700
     19 HAAB        -4.2220     1.1250    -0.2220 h1         1 XRG       0.038700
@<TRIPOS>BOND
     1     1     2 1   
     2     1    10 1   
     3     1    11 1   
     4     1    12 1   
     5     2     3 1   
     6     2    13 1   
     7     3     4 2   
     8     3     5 1   
     9     5     6 1   
    10     5    14 1   
    11     6     7 2   
    12     6     8 1   
    13     7    15 1   
    14     8     9 1   
    15     8    16 1   
    16     9    17 1   
    17     9    18 1   
    18     9    19 1   
@<TRIPOS>SUBSTRUCTURE
     1 XRG         1 TEMP              0 ****  ****    0 ROOT
