@<TRIPOS>MOLECULE
XRG
   19    18     1     0     0
SMALL
No Charge or Current Charge


@<TRIPOS>ATOM
      1 CAB          3.6850     0.3340    -0.1290 c3         1 XRG       0.110300
      2 NAF          2.2760     0.6320     0.1370 ns         1 XRG      -0.533900
      3 CAI          1.2490    -0.2440    -0.1010 c          1 XRG       0.669100
      4 OAD          1.4230    -1.3580    -0.5680 o          1 XRG      -0.577100
      5 NAG          0.0350     0.2770     0.2220 ns         1 XRG      -0.467400
      6 CAH         -1.1700    -0.3480     0.1470 c2         1 XRG       0.678800
      7 NAC         -1.4430    -1.5060     0.5610 n2         1 XRG      -0.820100
      8 NAE         -2.1490     0.5610    -0.0860 nu         1 XRG      -0.961400
      9 CAA         -3.5940     0.2670    -0.1670 c3         1 XRG       0.198100
     10 HAB          3.9960    -0.5380     0.4600 h1         1 XRG       0.039700
     11 HABA         3.8220     0.1210    -1.1970 h1         1 XRG       0.039700
     12 HABB         4.3010     1.1970     0.1500 h1         1 XRG       0.039700
     13 HNAF         2.0400     1.5370     0.5240 hn         1 XRG       0.305500
     14 HNAG         0.0240     1.2230     0.5610 hn         1 XRG       0.309500
     15 HNAC        -2.4620    -1.5950     0.5060 hn         1 XRG       0.386400
     16 HNAE        -1.8360     1.4150    -0.5430 hn         1 XRG       0.467000
     17 HAA         -3.7960    -0.4650    -0.9620 h1         1 XRG       0.038700
     18 HAAA        -3.9630    -0.1370     0.7850 h1         1 XRG       0.038700
     19 HAAB        -4.1570     1.1830    -0.3920 h1         1 XRG       0.038700
@<TRIPOS>BOND
     1     1     2 1   
     2     1    10 1   
     3     1    11 1   
     4     1    12 1   
     5     2     3 1   
     6     2    13 1   
     7     3     4 2   
     8     3     5 1   
     9     5     6 1   
    10     5    14 1   
    11     6     7 2   
    12     6     8 1   
    13     7    15 1   
    14     8     9 1   
    15     8    16 1   
    16     9    17 1   
    17     9    18 1   
    18     9    19 1   
@<TRIPOS>SUBSTRUCTURE
     1 XRG         1 TEMP              0 ****  ****    0 ROOT
