@<TRIPOS>MOLECULE
XRH
   76    81     1     0     0
SMALL
No Charge or Current Charge


@<TRIPOS>ATOM
      1 C11        -35.3590     3.4400   -42.1880 ca         1 XRH      -0.175000
      2 C14        -33.4060    -0.4610   -43.0130 c          1 XRH       0.610100
      3 C15        -32.9580    -2.5070   -41.5130 ca         1 XRH      -0.029000
      4 C20        -30.8440    -9.3510   -46.3710 c3         1 XRH       0.209600
      5 C21        -28.7030    -8.0570   -46.4860 c3         1 XRH       0.209600
      6 C22        -29.6180    -7.2140   -43.6090 ca         1 XRH      -0.274900
      7 C23        -30.0670    -6.2090   -42.7310 ca         1 XRH       0.144600
      8 C25        -28.0760    -6.5470   -41.3510 ca         1 XRH       0.179000
      9 C26        -27.6760    -7.6050   -42.1730 ca         1 XRH      -0.159000
     10 C27        -28.4390    -7.9380   -43.3010 ca         1 XRH      -0.032000
     11 C29        -32.6240    -4.1880   -39.7750 ca         1 XRH      -0.086000
     12 C30        -33.0800    -2.9220   -40.1750 ca         1 XRH      -0.143000
     13 C31        -34.6530     3.0370   -39.8950 ca         1 XRH      -0.135000
     14 O3         -32.8560    -0.8280   -44.0470 o          1 XRH      -0.563100
     15 C13        -34.1200     0.9030   -42.9170 c3         1 XRH       0.069600
     16 O1         -34.1260     1.4200   -41.5630 os         1 XRH      -0.361100
     17 C12        -34.7130     2.6250   -41.2350 ca         1 XRH       0.145100
     18 C32        -35.2250     4.2570   -39.5030 ca         1 XRH      -0.071000
     19 C33        -35.8670     5.0660   -40.4550 ca         1 XRH      -0.128000
     20 C10        -35.9550     4.6590   -41.8030 ca         1 XRH       0.075600
     21 N2         -36.5900     5.4990   -42.7920 n          1 XRH      -0.250200
     22 C9         -37.8960     6.0460   -42.5100 ca         1 XRH       0.142600
     23 C8         -38.6880     5.6160   -41.4200 ca         1 XRH      -0.170000
     24 C7         -39.9330     6.2040   -41.1650 ca         1 XRH       0.179000
     25 Cl         -40.8910     5.6680   -39.7920 cl         1 XRH      -0.186000
     26 C6         -40.4110     7.2220   -41.9950 ca         1 XRH      -0.157000
     27 C5         -39.6610     7.6230   -43.1100 ca         1 XRH      -0.031000
     28 C4         -38.4170     7.0080   -43.3960 ca         1 XRH      -0.274900
     29 C1         -37.6240     7.3520   -44.5760 cc         1 XRH       0.788800
     30 N1         -38.1670     8.1920   -45.5180 nh         1 XRH      -0.736600
     31 C3         -37.3390     9.2470   -46.1380 c3         1 XRH       0.209100
     32 C2         -39.3530     7.7660   -46.2910 c3         1 XRH       0.209100
     33 N          -36.4420     6.8500   -44.8000 nd         1 XRH      -0.763100
     34 C          -35.8710     5.9300   -43.9280 c          1 XRH       0.727400
     35 O          -34.7410     5.5430   -44.1790 o          1 XRH      -0.515000
     36 N3         -33.4510    -1.2140   -41.8450 ns         1 XRH      -0.144000
     37 C28        -32.0360    -5.0510   -40.7120 ca         1 XRH      -0.112000
     38 C17        -31.8880    -4.6520   -42.0570 ca         1 XRH       0.054600
     39 C16        -32.3700    -3.3850   -42.4510 ca         1 XRH      -0.092000
     40 N4         -31.3130    -5.5480   -43.0360 n          1 XRH      -0.247200
     41 C24        -29.2580    -5.8510   -41.6270 ca         1 XRH      -0.170000
     42 C19        -30.4180    -7.4880   -44.8030 cc         1 XRH       0.787800
     43 N6         -29.9360    -8.3740   -45.7350 nh         1 XRH      -0.737600
     44 N5         -31.5470    -6.8830   -45.0470 nd         1 XRH      -0.761100
     45 C18        -32.0480    -5.9140   -44.1840 c          1 XRH       0.727400
     46 O2         -33.1340    -5.4280   -44.4540 o          1 XRH      -0.510000
     47 H9         -35.4210     3.1350   -43.2280 ha         1 XRH       0.133000
     48 H16        -30.2770   -10.2040   -46.7680 h1         1 XRH       0.048033
     49 H14        -31.5710    -9.7340   -45.6430 h1         1 XRH       0.048033
     50 H15        -31.3930    -8.8830   -47.1990 h1         1 XRH       0.048033
     51 H19        -28.9370    -7.8480   -47.5380 h1         1 XRH       0.048033
     52 H18        -28.2000    -7.1750   -46.0680 h1         1 XRH       0.048033
     53 H17        -28.0040    -8.9030   -46.4490 h1         1 XRH       0.048033
     54 H21        -26.7660    -8.1550   -41.9470 ha         1 XRH       0.135000
     55 H22        -28.1010    -8.7600   -43.9270 ha         1 XRH       0.123000
     56 H24        -32.7340    -4.5030   -38.7390 ha         1 XRH       0.120000
     57 H25        -33.5340    -2.2630   -39.4380 ha         1 XRH       0.115000
     58 H26        -34.1550     2.4100   -39.1600 ha         1 XRH       0.130000
     59 H10        -33.6070     1.5950   -43.5960 h1         1 XRH       0.071700
     60 H11        -35.1470     0.7530   -43.2740 h1         1 XRH       0.071700
     61 H27        -35.1650     4.5790   -38.4660 ha         1 XRH       0.123000
     62 H28        -36.2820     6.0220   -40.1440 ha         1 XRH       0.131000
     63 H8         -38.3650     4.8140   -40.7650 ha         1 XRH       0.148000
     64 H7         -41.3700     7.6880   -41.7860 ha         1 XRH       0.137000
     65 H6         -40.0610     8.4120   -43.7430 ha         1 XRH       0.124000
     66 H5         -37.9720    10.0460   -46.5460 h1         1 XRH       0.048867
     67 H3         -36.6620     9.6940   -45.3980 h1         1 XRH       0.048867
     68 H4         -36.7350     8.8310   -46.9550 h1         1 XRH       0.048867
     69 H2         -39.0810     7.5780   -47.3380 h1         1 XRH       0.048867
     70 H1         -39.7830     6.8430   -45.8810 h1         1 XRH       0.048867
     71 H          -40.1250     8.5470   -46.2680 h1         1 XRH       0.048867
     72 H12        -33.9240    -0.7460   -41.0820 hn         1 XRH       0.170000
     73 H23        -31.7130    -6.0390   -40.3940 ha         1 XRH       0.128000
     74 H13        -32.2650    -3.0980   -43.4910 ha         1 XRH       0.147000
     75 H20        -29.5200    -5.0230   -40.9780 ha         1 XRH       0.148000
     76 Cl1        -27.0980    -6.0980   -39.9610 cl         1 XRH      -0.189000
@<TRIPOS>BOND
     1     1    17 ar  
     2     1    20 ar  
     3     1    47 1   
     4     2    14 2   
     5     2    15 1   
     6     2    36 1   
     7     3    12 ar  
     8     3    36 1   
     9     3    39 ar  
    10     4    43 1   
    11     4    48 1   
    12     4    49 1   
    13     4    50 1   
    14     5    43 1   
    15     5    51 1   
    16     5    52 1   
    17     5    53 1   
    18     6     7 ar  
    19     6    10 ar  
    20     6    42 1   
    21     7    40 1   
    22     7    41 ar  
    23     8     9 ar  
    24     8    41 ar  
    25     8    76 1   
    26     9    10 ar  
    27     9    54 1   
    28    10    55 1   
    29    11    12 ar  
    30    11    37 ar  
    31    11    56 1   
    32    12    57 1   
    33    13    17 ar  
    34    13    18 ar  
    35    13    58 1   
    36    15    16 1   
    37    15    59 1   
    38    15    60 1   
    39    16    17 1   
    40    18    19 ar  
    41    18    61 1   
    42    19    20 ar  
    43    19    62 1   
    44    20    21 1   
    45    21    22 1   
    46    21    34 1   
    47    22    23 ar  
    48    22    28 ar  
    49    23    24 ar  
    50    23    63 1   
    51    24    25 1   
    52    24    26 ar  
    53    26    27 ar  
    54    26    64 1   
    55    27    28 ar  
    56    27    65 1   
    57    28    29 1   
    58    29    30 1   
    59    29    33 2   
    60    30    31 1   
    61    30    32 1   
    62    31    66 1   
    63    31    67 1   
    64    31    68 1   
    65    32    69 1   
    66    32    70 1   
    67    32    71 1   
    68    33    34 1   
    69    34    35 2   
    70    36    72 1   
    71    37    38 ar  
    72    37    73 1   
    73    38    39 ar  
    74    38    40 1   
    75    39    74 1   
    76    40    45 1   
    77    41    75 1   
    78    42    43 1   
    79    42    44 2   
    80    44    45 1   
    81    45    46 2   
@<TRIPOS>SUBSTRUCTURE
     1 XRH         1 TEMP              0 ****  ****    0 ROOT
