@<TRIPOS>MOLECULE
XRH
   76    81     1     0     0
SMALL
abcg2


@<TRIPOS>ATOM
      1 C11        -35.0230     3.3940   -42.3830 ca         1 XRH      -0.175000
      2 C14        -34.0780    -0.7670   -43.0820 c          1 XRH       0.610100
      3 C15        -33.6650    -2.7150   -41.6510 ca         1 XRH      -0.029000
      4 C20        -30.2950    -8.3720   -46.7690 c3         1 XRH       0.209600
      5 C21        -28.2090    -7.4390   -45.9180 c3         1 XRH       0.209600
      6 C22        -29.7470    -6.6830   -43.4520 ca         1 XRH      -0.274900
      7 C23        -30.5510    -5.8700   -42.6370 ca         1 XRH       0.144600
      8 C25        -28.7760    -5.7210   -41.0400 ca         1 XRH       0.179000
      9 C26        -28.0010    -6.6150   -41.7720 ca         1 XRH      -0.159000
     10 C27        -28.4980    -7.0850   -42.9670 ca         1 XRH      -0.032000
     11 C29        -34.1090    -4.6360   -40.2640 ca         1 XRH      -0.086000
     12 C30        -34.2830    -3.2900   -40.5430 ca         1 XRH      -0.143000
     13 C31        -33.5980     3.1140   -40.4580 ca         1 XRH      -0.135000
     14 O3         -34.0550    -1.3490   -44.1480 o          1 XRH      -0.563100
     15 C13        -34.4370     0.7080   -43.0370 c3         1 XRH       0.069600
     16 O1         -33.9950     1.2750   -41.8270 os         1 XRH      -0.361100
     17 C12        -34.2220     2.5840   -41.5860 ca         1 XRH       0.145100
     18 C32        -33.7700     4.4480   -40.1370 ca         1 XRH      -0.071000
     19 C33        -34.5610     5.2720   -40.9280 ca         1 XRH      -0.128000
     20 C10        -35.1800     4.7310   -42.0400 ca         1 XRH       0.075600
     21 N2         -36.0280     5.5480   -42.8460 n          1 XRH      -0.250200
     22 C9         -37.3260     5.7860   -42.4600 ca         1 XRH       0.142600
     23 C8         -37.8400     5.2390   -41.2790 ca         1 XRH      -0.170000
     24 C7         -39.0970     5.6130   -40.8610 ca         1 XRH       0.179000
     25 CL         -39.7210     4.9470   -39.3950 cl         1 XRH      -0.186000
     26 C6         -39.8660     6.5340   -41.5670 ca         1 XRH      -0.157000
     27 C5         -39.3700     7.0270   -42.7530 ca         1 XRH      -0.031000
     28 C4         -38.1270     6.6240   -43.2520 ca         1 XRH      -0.274900
     29 C1         -37.5320     7.0900   -44.5010 cc         1 XRH       0.788800
     30 N1         -38.2610     7.7020   -45.4480 nh         1 XRH      -0.736600
     31 C3         -37.5790     8.3700   -46.5410 c3         1 XRH       0.209100
     32 C2         -39.6720     7.4500   -45.6920 c3         1 XRH       0.209100
     33 N          -36.2490     6.9560   -44.7240 nd         1 XRH      -0.763100
     34 C          -35.4420     6.2400   -43.9090 c          1 XRH       0.727400
     35 O          -34.2420     6.1380   -44.0950 o          1 XRH      -0.515000
     36 N3         -33.8580    -1.3440   -41.8800 ns         1 XRH      -0.144000
     37 C28        -33.3250    -5.4270   -41.0900 ca         1 XRH      -0.112000
     38 C17        -32.7050    -4.8450   -42.1840 ca         1 XRH       0.054600
     39 C16        -32.8570    -3.4980   -42.4720 ca         1 XRH      -0.092000
     40 N4         -31.8530    -5.6340   -43.0120 n          1 XRH      -0.247200
     41 C24        -30.0390    -5.3480   -41.4440 ca         1 XRH      -0.170000
     42 C19        -30.3440    -7.1270   -44.7070 cc         1 XRH       0.787800
     43 N6         -29.6140    -7.7140   -45.6690 nh         1 XRH      -0.737600
     44 N5         -31.6290    -7.0010   -44.9210 nd         1 XRH      -0.761100
     45 C18        -32.4380    -6.3090   -44.0870 c          1 XRH       0.727400
     46 O2         -33.6400    -6.2140   -44.2640 o          1 XRH      -0.510000
     47 H9         -35.5310     3.0190   -43.2620 ha         1 XRH       0.133000
     48 H16        -29.6080    -9.0910   -47.2120 h1         1 XRH       0.048033
     49 H14        -31.1750    -8.9020   -46.4190 h1         1 XRH       0.048033
     50 H15        -30.6010    -7.6630   -47.5420 h1         1 XRH       0.048033
     51 H19        -28.0850    -7.2220   -46.9790 h1         1 XRH       0.048033
     52 H18        -27.8670    -6.5660   -45.3700 h1         1 XRH       0.048033
     53 H17        -27.5730    -8.2900   -45.6720 h1         1 XRH       0.048033
     54 H21        -27.0350    -6.9380   -41.4120 ha         1 XRH       0.135000
     55 H22        -27.9010    -7.7990   -43.5140 ha         1 XRH       0.123000
     56 H24        -34.5950    -5.0710   -39.4010 ha         1 XRH       0.120000
     57 H25        -34.9060    -2.6800   -39.9000 ha         1 XRH       0.115000
     58 H26        -32.9780     2.4750   -39.8420 ha         1 XRH       0.130000
     59 H10        -33.9820     1.2020   -43.9010 h1         1 XRH       0.071700
     60 H11        -35.5270     0.7790   -43.1460 h1         1 XRH       0.071700
     61 H27        -33.2780     4.8520   -39.2620 ha         1 XRH       0.123000
     62 H28        -34.6980     6.3170   -40.6800 ha         1 XRH       0.131000
     63 H8         -37.2530     4.5540   -40.6840 ha         1 XRH       0.148000
     64 H7         -40.8270     6.8570   -41.1950 ha         1 XRH       0.137000
     65 H6         -39.9620     7.7590   -43.2800 ha         1 XRH       0.124000
     66 H5         -38.2630     9.0970   -46.9760 h1         1 XRH       0.048867
     67 H3         -36.6970     8.8940   -46.1850 h1         1 XRH       0.048867
     68 H4         -37.2760     7.6690   -47.3220 h1         1 XRH       0.048867
     69 H2         -39.8070     7.2580   -46.7560 h1         1 XRH       0.048867
     70 H1         -40.0200     6.5690   -45.1610 h1         1 XRH       0.048867
     71 H          -40.2950     8.3030   -45.4210 h1         1 XRH       0.048867
     72 H12        -34.0080    -0.7730   -41.0610 hn         1 XRH       0.170000
     73 H23        -33.1880    -6.4810   -40.8840 ha         1 XRH       0.128000
     74 H13        -32.3310    -3.0730   -43.3140 ha         1 XRH       0.147000
     75 H20        -30.6300    -4.6850   -40.8300 ha         1 XRH       0.148000
     76 CL1        -28.1540    -5.0850   -39.5610 cl         1 XRH      -0.189000
@<TRIPOS>BOND
     1     1    17 ar  
     2     1    20 ar  
     3     1    47 1   
     4     2    14 2   
     5     2    15 1   
     6     2    36 1   
     7     3    12 ar  
     8     3    36 1   
     9     3    39 ar  
    10     4    43 1   
    11     4    48 1   
    12     4    49 1   
    13     4    50 1   
    14     5    43 1   
    15     5    51 1   
    16     5    52 1   
    17     5    53 1   
    18     6     7 ar  
    19     6    10 ar  
    20     6    42 1   
    21     7    40 1   
    22     7    41 ar  
    23     8     9 ar  
    24     8    41 ar  
    25     8    76 1   
    26     9    10 ar  
    27     9    54 1   
    28    10    55 1   
    29    11    12 ar  
    30    11    37 ar  
    31    11    56 1   
    32    12    57 1   
    33    13    17 ar  
    34    13    18 ar  
    35    13    58 1   
    36    15    16 1   
    37    15    59 1   
    38    15    60 1   
    39    16    17 1   
    40    18    19 ar  
    41    18    61 1   
    42    19    20 ar  
    43    19    62 1   
    44    20    21 1   
    45    21    22 1   
    46    21    34 1   
    47    22    23 ar  
    48    22    28 ar  
    49    23    24 ar  
    50    23    63 1   
    51    24    25 1   
    52    24    26 ar  
    53    26    27 ar  
    54    26    64 1   
    55    27    28 ar  
    56    27    65 1   
    57    28    29 1   
    58    29    30 1   
    59    29    33 2   
    60    30    31 1   
    61    30    32 1   
    62    31    66 1   
    63    31    67 1   
    64    31    68 1   
    65    32    69 1   
    66    32    70 1   
    67    32    71 1   
    68    33    34 1   
    69    34    35 2   
    70    36    72 1   
    71    37    38 ar  
    72    37    73 1   
    73    38    39 ar  
    74    38    40 1   
    75    39    74 1   
    76    40    45 1   
    77    41    75 1   
    78    42    43 1   
    79    42    44 2   
    80    44    45 1   
    81    45    46 2   
@<TRIPOS>SUBSTRUCTURE
     1 XRH         1 TEMP              0 ****  ****    0 ROOT
