@<TRIPOS>MOLECULE
XRJ
   45    45     1     0     0
SMALL
abcg2


@<TRIPOS>ATOM
      1 O13         -0.0840     3.1000     1.6190 o          1 XRJ      -0.604100
      2 C12          0.1830     2.7990     0.4620 c          1 XRJ       0.606100
      3 N14          1.4170     2.9340    -0.0450 ns         1 XRJ      -0.508900
      4 C15          2.5280     3.4240     0.7340 c3         1 XRJ       0.097300
      5 C11         -0.8670     2.2640    -0.4900 c3         1 XRJ      -0.145400
      6 C3          -1.5530     1.0420     0.0970 c5         1 XRJ       0.191500
      7 C4          -2.6540     0.4060    -0.7600 c5         1 XRJ       0.096300
      8 O21         -2.2240     0.3530    -2.1020 oh         1 XRJ      -0.655000
      9 C5          -2.8010    -0.9960    -0.1190 c5         1 XRJ       0.098300
     10 O20         -4.0230    -1.2160     0.5450 oh         1 XRJ      -0.649000
     11 C6          -1.6670    -1.0410     0.9310 c5         1 XRJ       0.176500
     12 C18         -1.1960    -2.4290     1.3150 c3         1 XRJ       0.169600
     13 O19         -0.8520    -3.1990     0.1870 oh         1 XRJ      -0.667000
     14 N2          -0.6750    -0.0560     0.5120 n3         1 XRJ      -0.701600
     15 C1           0.3360    -0.4840    -0.4530 c3         1 XRJ       0.178800
     16 C7           1.5960    -1.0230     0.2110 c3         1 XRJ      -0.074400
     17 C8           2.7270    -1.2220    -0.7900 c3         1 XRJ      -0.075400
     18 C9           3.9700    -1.8530    -0.1770 c3         1 XRJ      -0.074400
     19 C10          5.1150    -1.9930    -1.1710 c3         1 XRJ      -0.088100
     20 H14          1.5860     2.6720    -1.0010 hn         1 XRJ       0.312500
     21 H111        -1.6270     3.0420    -0.6110 hc         1 XRJ       0.066700
     22 H112        -0.4610     2.0820    -1.4850 hc         1 XRJ       0.066700
     23 H151         2.3470     4.4330     1.1050 h1         1 XRJ       0.038033
     24 H152         2.7380     2.7790     1.5880 h1         1 XRJ       0.038033
     25 H153         3.4100     3.4470     0.1000 h1         1 XRJ       0.038033
     26 H3          -2.0510     1.3780     1.0140 h1         1 XRJ       0.086700
     27 H4          -3.5920     0.9710    -0.6720 h1         1 XRJ       0.049700
     28 H21         -2.9010    -0.0920    -2.6210 ho         1 XRJ       0.441000
     29 H5          -2.6360    -1.7550    -0.8930 h1         1 XRJ       0.059700
     30 H20         -4.7110    -1.3490    -0.1140 ho         1 XRJ       0.441000
     31 H6          -2.1060    -0.6410     1.8560 h1         1 XRJ       0.079700
     32 H181        -0.3580    -2.3310     2.0160 h1         1 XRJ       0.033200
     33 H182        -2.0170    -2.8990     1.8710 h1         1 XRJ       0.033200
     34 H19         -0.4860    -4.0320     0.4960 ho         1 XRJ       0.444000
     35 H11C        -0.0400    -1.2080    -1.1830 h1         1 XRJ       0.038700
     36 H12C         0.6380     0.3850    -1.0360 h1         1 XRJ       0.038700
     37 H71C         1.9130    -0.3180     0.9860 hc         1 XRJ       0.044200
     38 H72C         1.3930    -1.9710     0.7150 hc         1 XRJ       0.044200
     39 H81C         2.3790    -1.8470    -1.6210 hc         1 XRJ       0.033700
     40 H82C         2.9930    -0.2550    -1.2320 hc         1 XRJ       0.033700
     41 H91C         4.2970    -1.2530     0.6770 hc         1 XRJ       0.036700
     42 H92C         3.7120    -2.8370     0.2270 hc         1 XRJ       0.036700
     43 H101         4.8170    -2.5960    -2.0310 hc         1 XRJ       0.030700
     44 H102         5.4310    -1.0190    -1.5480 hc         1 XRJ       0.030700
     45 H103         5.9850    -2.4710    -0.7200 hc         1 XRJ       0.030700
@<TRIPOS>BOND
     1     1     2 2   
     2     2     3 1   
     3     2     5 1   
     4     3     4 1   
     5     3    20 1   
     6     4    23 1   
     7     4    24 1   
     8     4    25 1   
     9     5     6 1   
    10     5    21 1   
    11     5    22 1   
    12     6     7 1   
    13     6    14 1   
    14     6    26 1   
    15     7     8 1   
    16     7     9 1   
    17     7    27 1   
    18     8    28 1   
    19     9    10 1   
    20     9    11 1   
    21     9    29 1   
    22    10    30 1   
    23    11    12 1   
    24    11    14 1   
    25    11    31 1   
    26    12    13 1   
    27    12    32 1   
    28    12    33 1   
    29    13    34 1   
    30    14    15 1   
    31    15    16 1   
    32    15    35 1   
    33    15    36 1   
    34    16    17 1   
    35    16    37 1   
    36    16    38 1   
    37    17    18 1   
    38    17    39 1   
    39    17    40 1   
    40    18    19 1   
    41    18    41 1   
    42    18    42 1   
    43    19    43 1   
    44    19    44 1   
    45    19    45 1   
@<TRIPOS>SUBSTRUCTURE
     1 XRJ         1 TEMP              0 ****  ****    0 ROOT
