@<TRIPOS>MOLECULE
XRJ
   45    45     1     0     0
SMALL
No Charge or Current Charge


@<TRIPOS>ATOM
      1 O13         -0.3370     3.5800     1.5920 o          1 XRJ      -0.604100
      2 C12          0.0330     3.0270     0.5650 c          1 XRJ       0.606100
      3 N14          1.3630     2.9540     0.2130 ns         1 XRJ      -0.508900
      4 C15          2.4630     3.4610     1.0330 c3         1 XRJ       0.097300
      5 C11         -0.9440     2.4240    -0.4400 c3         1 XRJ      -0.145400
      6 C3          -1.5760     1.1250     0.1200 c5         1 XRJ       0.191500
      7 C4          -2.6290     0.4070    -0.8060 c5         1 XRJ       0.096300
      8 O21         -2.2870     0.4190    -2.2050 oh         1 XRJ      -0.655000
      9 C5          -2.6680    -1.0580    -0.2220 c5         1 XRJ       0.098300
     10 O20         -3.9900    -1.4420     0.1910 oh         1 XRJ      -0.649000
     11 C6          -1.6500    -1.0020     0.9790 c5         1 XRJ       0.176500
     12 C18         -1.1490    -2.3950     1.4940 c3         1 XRJ       0.169600
     13 O19         -0.7140    -3.2790     0.4400 oh         1 XRJ      -0.667000
     14 N2          -0.6450     0.0260     0.5230 n3         1 XRJ      -0.701600
     15 C1           0.3550    -0.4210    -0.4930 c3         1 XRJ       0.178800
     16 C7           1.6730    -0.9330     0.1290 c3         1 XRJ      -0.074400
     17 C8           2.7150    -1.3480    -0.9320 c3         1 XRJ      -0.075400
     18 C9           4.0420    -1.8430    -0.3160 c3         1 XRJ      -0.074400
     19 C10          5.0820    -2.2560    -1.3750 c3         1 XRJ      -0.088100
     20 H14          1.5810     2.4890    -0.6600 hn         1 XRJ       0.312500
     21 H111        -1.7470     3.1500    -0.6110 hc         1 XRJ       0.066700
     22 H112        -0.4400     2.2310    -1.3920 hc         1 XRJ       0.066700
     23 H151         2.3490     4.5430     1.1760 h1         1 XRJ       0.038033
     24 H152         2.4570     2.9600     2.0090 h1         1 XRJ       0.038033
     25 H153         3.4180     3.2610     0.5290 h1         1 XRJ       0.038033
     26 H3          -2.1190     1.4600     1.0180 h1         1 XRJ       0.086700
     27 H4          -3.6010     0.9020    -0.6750 h1         1 XRJ       0.049700
     28 H21         -3.0560     0.0550    -2.6970 ho         1 XRJ       0.441000
     29 H5          -2.3000    -1.7640    -0.9800 h1         1 XRJ       0.059700
     30 H20         -4.5080    -1.6260    -0.6250 ho         1 XRJ       0.441000
     31 H6          -2.1820    -0.5880     1.8490 h1         1 XRJ       0.079700
     32 H181        -0.3420    -2.2310     2.2200 h1         1 XRJ       0.033200
     33 H182        -1.9790    -2.8640     2.0390 h1         1 XRJ       0.033200
     34 H19         -0.4360    -4.1180     0.8680 ho         1 XRJ       0.444000
     35 H11C        -0.0660    -1.1990    -1.1440 h1         1 XRJ       0.038700
     36 H12C         0.6320     0.4080    -1.1520 h1         1 XRJ       0.038700
     37 H71C         2.0960    -0.1380     0.7550 hc         1 XRJ       0.044200
     38 H72C         1.4790    -1.7830     0.7900 hc         1 XRJ       0.044200
     39 H81C         2.2910    -2.1410    -1.5610 hc         1 XRJ       0.033700
     40 H82C         2.9200    -0.4940    -1.5890 hc         1 XRJ       0.033700
     41 H91C         4.4680    -1.0520     0.3130 hc         1 XRJ       0.036700
     42 H92C         3.8410    -2.7000     0.3390 hc         1 XRJ       0.036700
     43 H101         4.6980    -3.0710    -2.0000 hc         1 XRJ       0.030700
     44 H102         5.3310    -1.4080    -2.0250 hc         1 XRJ       0.030700
     45 H103         6.0040    -2.6000    -0.8920 hc         1 XRJ       0.030700
@<TRIPOS>BOND
     1     1     2 2   
     2     2     3 1   
     3     2     5 1   
     4     3     4 1   
     5     3    20 1   
     6     4    23 1   
     7     4    24 1   
     8     4    25 1   
     9     5     6 1   
    10     5    21 1   
    11     5    22 1   
    12     6     7 1   
    13     6    14 1   
    14     6    26 1   
    15     7     8 1   
    16     7     9 1   
    17     7    27 1   
    18     8    28 1   
    19     9    10 1   
    20     9    11 1   
    21     9    29 1   
    22    10    30 1   
    23    11    12 1   
    24    11    14 1   
    25    11    31 1   
    26    12    13 1   
    27    12    32 1   
    28    12    33 1   
    29    13    34 1   
    30    14    15 1   
    31    15    16 1   
    32    15    35 1   
    33    15    36 1   
    34    16    17 1   
    35    16    37 1   
    36    16    38 1   
    37    17    18 1   
    38    17    39 1   
    39    17    40 1   
    40    18    19 1   
    41    18    41 1   
    42    18    42 1   
    43    19    43 1   
    44    19    44 1   
    45    19    45 1   
@<TRIPOS>SUBSTRUCTURE
     1 XRJ         1 TEMP              0 ****  ****    0 ROOT
