@<TRIPOS>MOLECULE
XRL
   54    57     1     0     0
SMALL
No Charge or Current Charge


@<TRIPOS>ATOM
      1 C10         12.1620    65.1150   -18.6280 ca         1 XRL      -0.092500
      2 C13         11.3450    62.4340   -18.3530 ca         1 XRL      -0.060800
      3 C15         13.7700    64.9300   -16.6820 c3         1 XRL      -0.047300
      4 C20          6.0190    64.2450   -15.8720 ca         1 XRL      -0.039500
      5 C21          6.5300    64.8210   -17.0510 ca         1 XRL      -0.061000
      6 C22          7.9200    64.9760   -17.2020 ca         1 XRL      -0.039500
      7 C24          5.6370    65.2560   -18.0900 cg         1 XRL       0.330000
      8 C28         14.3210    60.2380   -15.6640 c3         1 XRL      -0.183400
      9 C11         11.1890    64.5940   -19.5000 ca         1 XRL      -0.063800
     10 C12         10.7950    63.2520   -19.3580 ca         1 XRL      -0.092500
     11 C14         12.3250    62.9640   -17.4730 ca         1 XRL       0.288000
     12 C16         10.8350    60.9970   -18.2290 c3         1 XRL      -0.047300
     13 C18          8.2860    63.9520   -15.0110 ca         1 XRL       0.347000
     14 C19          6.8970    63.8180   -14.8580 ca         1 XRL      -0.168000
     15 C23          8.7900    64.5490   -16.1840 ca         1 XRL      -0.168000
     16 C25         15.0890    61.0290   -14.6260 c          1 XRL       0.568000
     17 C27         10.5620    65.4300   -20.5650 ce         1 XRL      -0.105200
     18 C29         13.9090    61.2030   -16.7670 c3         1 XRL       0.246800
     19 C01         12.9530    62.1350   -13.8630 ca         1 XRL      -0.245000
     20 C02         12.2810    62.3200   -15.1040 ca         1 XRL       0.427900
     21 C04         10.4270    63.0390   -13.9470 ca         1 XRL       0.409900
     22 C06         12.2320    62.4390   -12.6930 ca         1 XRL       0.138900
     23 C09         12.7310    64.3140   -17.6180 ca         1 XRL      -0.060800
     24 C30         10.6400    66.7790   -20.7580 cf         1 XRL      -0.105700
     25 C31          9.9830    67.4690   -21.8190 ch         1 XRL       0.269700
     26 N03         11.0150    62.7710   -15.1150 nb         1 XRL      -0.299000
     27 N05         10.9640    62.8860   -12.7290 nb         1 XRL      -0.248000
     28 N07         14.3060    61.7200   -13.7300 ns         1 XRL      -0.136000
     29 N08          9.1240    63.5130   -13.9810 nu         1 XRL      -0.926900
     30 N17         12.8520    62.1820   -16.4080 nh         1 XRL      -0.820100
     31 N32          9.4290    67.9980   -22.7000 n1         1 XRL      -0.444000
     32 N33          4.9200    65.6100   -18.9400 n1         1 XRL      -0.460000
     33 H1          12.4840    66.1470   -18.7250 ha         1 XRL       0.120500
     34 H2          13.3770    65.0120   -15.6610 hc         1 XRL       0.047867
     35 H3          14.6800    64.3190   -16.6430 hc         1 XRL       0.047867
     36 H4          14.0670    65.9350   -17.0020 hc         1 XRL       0.047867
     37 H5           4.9450    64.1240   -15.7400 ha         1 XRL       0.124000
     38 H6           8.3290    65.4300   -18.1030 ha         1 XRL       0.124000
     39 H7          13.4030    59.8150   -15.2400 hc         1 XRL       0.084200
     40 H8          14.9590    59.4530   -16.0830 hc         1 XRL       0.084200
     41 H9          10.0400    62.8430   -20.0260 ha         1 XRL       0.120500
     42 H10         11.5090    60.2980   -18.7370 hc         1 XRL       0.047867
     43 H11         10.7480    60.6820   -17.1830 hc         1 XRL       0.047867
     44 H12          9.8420    60.8830   -18.6790 hc         1 XRL       0.047867
     45 H13          6.4910    63.3690   -13.9560 ha         1 XRL       0.137500
     46 H14          9.8560    64.7020   -16.3120 ha         1 XRL       0.137500
     47 H15          9.9510    64.8610   -21.2700 ha         1 XRL       0.186000
     48 H16         13.5590    60.5940   -17.6110 h1         1 XRL       0.059200
     49 H17         14.8030    61.7410   -17.1130 h1         1 XRL       0.059200
     50 H18         12.6810    62.3300   -11.7060 h4         1 XRL       0.026100
     51 H19         11.2220    67.3990   -20.0800 ha         1 XRL       0.202000
     52 H20         14.8060    62.1270   -12.9500 hn         1 XRL       0.157000
     53 H21          8.6660    63.4530   -13.0730 hn         1 XRL       0.516000
     54 O26         16.3120    61.0420   -14.5760 o          1 XRL      -0.542000
@<TRIPOS>BOND
     1     1     9 ar  
     2     1    23 ar  
     3     1    33 1   
     4     2    10 ar  
     5     2    11 ar  
     6     2    12 1   
     7     3    23 1   
     8     3    34 1   
     9     3    35 1   
    10     3    36 1   
    11     4     5 ar  
    12     4    14 ar  
    13     4    37 1   
    14     5     6 ar  
    15     5     7 1   
    16     6    15 ar  
    17     6    38 1   
    18     7    32 3   
    19     8    16 1   
    20     8    18 1   
    21     8    39 1   
    22     8    40 1   
    23     9    10 ar  
    24     9    17 1   
    25    10    41 1   
    26    11    23 ar  
    27    11    30 1   
    28    12    42 1   
    29    12    43 1   
    30    12    44 1   
    31    13    14 ar  
    32    13    15 ar  
    33    13    29 1   
    34    14    45 1   
    35    15    46 1   
    36    16    28 1   
    37    16    54 2   
    38    17    24 2   
    39    17    47 1   
    40    18    30 1   
    41    18    48 1   
    42    18    49 1   
    43    19    20 ar  
    44    19    22 ar  
    45    19    28 1   
    46    20    26 ar  
    47    20    30 1   
    48    21    26 ar  
    49    21    27 ar  
    50    21    29 1   
    51    22    27 ar  
    52    22    50 1   
    53    24    25 1   
    54    24    51 1   
    55    25    31 3   
    56    28    52 1   
    57    29    53 1   
@<TRIPOS>SUBSTRUCTURE
     1 XRL         1 TEMP              0 ****  ****    0 ROOT
