@<TRIPOS>MOLECULE
XRL
   54    57     1     0     0
SMALL
abcg2


@<TRIPOS>ATOM
      1 C10         11.8910    65.1460   -18.5870 ca         1 XRL      -0.092500
      2 C13         11.5060    62.3880   -18.3630 ca         1 XRL      -0.060800
      3 C15         13.3110    65.1960   -16.5210 c3         1 XRL      -0.047300
      4 C20          6.2120    64.9360   -15.5820 ca         1 XRL      -0.039500
      5 C21          6.6330    65.1180   -16.9020 ca         1 XRL      -0.061000
      6 C22          7.9250    64.7360   -17.2620 ca         1 XRL      -0.039500
      7 C24          5.7520    65.6770   -17.8690 cg         1 XRL       0.330000
      8 C28         14.3670    60.3950   -15.9230 c3         1 XRL      -0.183400
      9 C11         11.1040    64.4810   -19.5290 ca         1 XRL      -0.063800
     10 C12         10.9230    63.1040   -19.4010 ca         1 XRL      -0.092500
     11 C14         12.2910    63.0830   -17.4440 ca         1 XRL       0.288000
     12 C16         11.2650    60.9160   -18.2170 c3         1 XRL      -0.047300
     13 C18          8.3690    63.9910   -15.0120 ca         1 XRL       0.347000
     14 C19          7.0660    64.3820   -14.6570 ca         1 XRL      -0.168000
     15 C23          8.7870    64.1810   -16.3360 ca         1 XRL      -0.168000
     16 C25         14.9440    60.6590   -14.5600 c          1 XRL       0.568000
     17 C27         10.4510    65.1600   -20.6400 ce         1 XRL      -0.105200
     18 C29         14.1640    61.6930   -16.6980 c3         1 XRL       0.246800
     19 C01         12.8860    61.9130   -13.9590 ca         1 XRL      -0.245000
     20 C02         12.3180    62.3800   -15.1660 ca         1 XRL       0.427900
     21 C04         10.4070    62.9200   -14.0240 ca         1 XRL       0.409900
     22 C06         12.0620    61.9840   -12.8490 ca         1 XRL       0.138900
     23 C09         12.4920    64.4640   -17.5410 ca         1 XRL      -0.060800
     24 C30         10.5410    66.4670   -20.9300 cf         1 XRL      -0.105700
     25 C31          9.8570    67.0230   -22.0420 ch         1 XRL       0.269700
     26 N03         11.0810    62.8760   -15.1530 nb         1 XRL      -0.299000
     27 N05         10.8350    62.4810   -12.8440 nb         1 XRL      -0.248000
     28 N07         14.2080    61.4800   -13.7720 ns         1 XRL      -0.136000
     29 N08          9.1420    63.4490   -14.0090 nu         1 XRL      -0.926900
     30 N17         12.9160    62.3700   -16.3800 nh         1 XRL      -0.820100
     31 N32          9.3090    67.4990   -22.9390 n1         1 XRL      -0.444000
     32 N33          5.0350    66.1250   -18.6530 n1         1 XRL      -0.460000
     33 H1          12.0420    66.2170   -18.6570 ha         1 XRL       0.120500
     34 H2          12.8360    65.1710   -15.5390 hc         1 XRL       0.047867
     35 H3          14.3060    64.7630   -16.4110 hc         1 XRL       0.047867
     36 H4          13.4330    66.2410   -16.8000 hc         1 XRL       0.047867
     37 H5           5.2140    65.2270   -15.2830 ha         1 XRL       0.124000
     38 H6           8.2670    64.8730   -18.2800 ha         1 XRL       0.124000
     39 H7          13.4260    59.8410   -15.8570 hc         1 XRL       0.084200
     40 H8          15.0720    59.7680   -16.4670 hc         1 XRL       0.084200
     41 H9          10.3030    62.5810   -20.1200 ha         1 XRL       0.120500
     42 H10         12.1850    60.3390   -18.3150 hc         1 XRL       0.047867
     43 H11         10.8410    60.6810   -17.2390 hc         1 XRL       0.047867
     44 H12         10.5720    60.5590   -18.9770 hc         1 XRL       0.047867
     45 H13          6.7230    64.2450   -13.6380 ha         1 XRL       0.137500
     46 H14          9.7790    63.8940   -16.6430 ha         1 XRL       0.137500
     47 H15          9.8400    64.5320   -21.2790 ha         1 XRL       0.186000
     48 H16         14.1340    61.4600   -17.7610 h1         1 XRL       0.059200
     49 H17         15.0200    62.3600   -16.5550 h1         1 XRL       0.059200
     50 H18         12.4450    61.6330   -11.8950 h4         1 XRL       0.026100
     51 H19         11.1330    67.1630   -20.3500 ha         1 XRL       0.202000
     52 H20         14.6070    61.6740   -12.8630 hn         1 XRL       0.157000
     53 H21          8.7120    63.4100   -13.0960 hn         1 XRL       0.516000
     54 O26         16.0250    60.2330   -14.1980 o          1 XRL      -0.542000
@<TRIPOS>BOND
     1     1     9 ar  
     2     1    23 ar  
     3     1    33 1   
     4     2    10 ar  
     5     2    11 ar  
     6     2    12 1   
     7     3    23 1   
     8     3    34 1   
     9     3    35 1   
    10     3    36 1   
    11     4     5 ar  
    12     4    14 ar  
    13     4    37 1   
    14     5     6 ar  
    15     5     7 1   
    16     6    15 ar  
    17     6    38 1   
    18     7    32 3   
    19     8    16 1   
    20     8    18 1   
    21     8    39 1   
    22     8    40 1   
    23     9    10 ar  
    24     9    17 1   
    25    10    41 1   
    26    11    23 ar  
    27    11    30 1   
    28    12    42 1   
    29    12    43 1   
    30    12    44 1   
    31    13    14 ar  
    32    13    15 ar  
    33    13    29 1   
    34    14    45 1   
    35    15    46 1   
    36    16    28 1   
    37    16    54 2   
    38    17    24 2   
    39    17    47 1   
    40    18    30 1   
    41    18    48 1   
    42    18    49 1   
    43    19    20 ar  
    44    19    22 ar  
    45    19    28 1   
    46    20    26 ar  
    47    20    30 1   
    48    21    26 ar  
    49    21    27 ar  
    50    21    29 1   
    51    22    27 ar  
    52    22    50 1   
    53    24    25 1   
    54    24    51 1   
    55    25    31 3   
    56    28    52 1   
    57    29    53 1   
@<TRIPOS>SUBSTRUCTURE
     1 XRL         1 TEMP              0 ****  ****    0 ROOT
