@<TRIPOS>MOLECULE
XRM
   51    54     1     0     0
SMALL
bcc


@<TRIPOS>ATOM
      1 C4         -24.2600   -13.2410    11.5520 ca         1 XRM      -0.311600
      2 C5         -23.5200   -14.4030    11.2320 ca         1 XRM       0.262400
      3 C6         -23.5380   -14.9400     9.9500 ca         1 XRM      -0.243000
      4 C7         -24.2210   -12.7130    12.8990 c          1 XRM       0.739100
      5 C13        -24.5030   -17.3110     7.5730 c5         1 XRM      -0.097900
      6 C15        -23.4170   -17.6170     5.4040 c5         1 XRM      -0.078400
      7 C20        -21.5800   -13.6780    17.3870 c6         1 XRM      -0.071400
      8 C21        -20.7460   -13.3600    18.6230 c6         1 XRM       0.160300
      9 C24        -22.3370   -15.7690    18.5390 c6         1 XRM      -0.071400
     10 C1         -24.2830   -14.3360     8.9320 ca         1 XRM       0.266600
     11 C2         -25.0320   -13.1760     9.2450 ca         1 XRM      -0.297000
     12 C3         -25.0060   -12.6700    10.5110 ca         1 XRM       0.261900
     13 N8         -23.4190   -13.4650    13.7420 ns         1 XRM      -0.494400
     14 C9         -22.7380   -14.5780    13.3690 cc         1 XRM       0.524900
     15 N10        -22.7620   -15.0580    12.1790 nd         1 XRM      -0.644100
     16 N11        -24.3030   -14.8000     7.6640 nu         1 XRM      -0.759600
     17 C12        -23.7180   -16.0440     7.2280 c5         1 XRM       0.222500
     18 C14        -23.8480   -18.3690     6.6860 c5         1 XRM      -0.078400
     19 C16        -23.6020   -16.1200     5.7050 c5         1 XRM      -0.097900
     20 S18        -22.8850   -15.6520    15.8960 ss         1 XRM      -0.326200
     21 C19        -21.7590   -15.1840    17.2530 c6         1 XRM       0.032400
     22 N22        -21.3820   -13.9170    19.8020 n7         1 XRM      -0.805200
     23 C23        -21.4730   -15.3630    19.7260 c6         1 XRM       0.160300
     24 F25        -25.7360   -11.5790    10.7550 f          1 XRM      -0.118900
     25 O26        -24.7970   -11.7290    13.3280 o          1 XRM      -0.602500
     26 H1         -22.9600   -15.8360     9.7740 ha         1 XRM       0.155000
     27 H2         -25.5510   -17.1630     7.2930 hc         1 XRM       0.051200
     28 H3         -24.4770   -17.5620     8.6340 hc         1 XRM       0.051200
     29 H4         -24.0150   -17.9160     4.5430 hc         1 XRM       0.046700
     30 H5         -22.3800   -17.8410     5.1550 hc         1 XRM       0.046700
     31 H6         -21.4660   -16.1460    13.9860 h1         1 XRM       0.092700
     32 H7         -21.0890   -14.5820    14.7100 h1         1 XRM       0.092700
     33 H9         -22.5610   -13.2040    17.4770 hc         1 XRM       0.059450
     34 H10        -19.7230   -13.7440    18.4710 h1         1 XRM       0.032950
     35 H11        -20.6640   -12.2780    18.7400 h1         1 XRM       0.032950
     36 H12        -23.3550   -15.3960    18.6900 hc         1 XRM       0.059450
     37 H13        -22.3900   -16.8570    18.4730 hc         1 XRM       0.059450
     38 H14        -25.6260   -12.6870     8.4830 ha         1 XRM       0.150000
     39 H15        -23.3840   -13.1760    14.7120 hn         1 XRM       0.337500
     40 H16        -24.9720   -14.3790     7.0380 hn         1 XRM       0.430800
     41 H17        -22.7120   -16.1250     7.6530 h1         1 XRM       0.068700
     42 H18        -24.5150   -19.2050     6.4770 hc         1 XRM       0.046700
     43 H19        -22.9730   -18.7830     7.1910 hc         1 XRM       0.046700
     44 H20        -22.7920   -15.5010     5.3180 hc         1 XRM       0.051200
     45 H21        -24.5320   -15.7550     5.2580 hc         1 XRM       0.051200
     46 H22        -20.7910   -15.6560    17.0570 h1         1 XRM       0.062700
     47 H23        -20.8580   -13.6540    20.6260 hn         1 XRM       0.360800
     48 H25        -21.9190   -15.7420    20.6470 h1         1 XRM       0.032950
     49 H26        -20.4870   -15.8440    19.6230 h1         1 XRM       0.032950
     50 C17        -21.9040   -15.2480    14.4170 c3         1 XRM      -0.042600
     51 H8         -21.0910   -13.2610    16.5040 hc         1 XRM       0.059450
@<TRIPOS>BOND
     1     1     2 ar  
     2     1     4 1   
     3     1    12 ar  
     4     2     3 ar  
     5     2    15 1   
     6     3    10 ar  
     7     3    26 1   
     8     4    13 1   
     9     4    25 2   
    10     5    17 1   
    11     5    18 1   
    12     5    27 1   
    13     5    28 1   
    14     6    18 1   
    15     6    19 1   
    16     6    29 1   
    17     6    30 1   
    18     7     8 1   
    19     7    21 1   
    20     7    33 1   
    21     7    51 1   
    22     8    22 1   
    23     8    34 1   
    24     8    35 1   
    25     9    21 1   
    26     9    23 1   
    27     9    36 1   
    28     9    37 1   
    29    10    11 ar  
    30    10    16 1   
    31    11    12 ar  
    32    11    38 1   
    33    12    24 1   
    34    13    14 1   
    35    13    39 1   
    36    14    15 2   
    37    14    50 1   
    38    16    17 1   
    39    16    40 1   
    40    17    19 1   
    41    17    41 1   
    42    18    42 1   
    43    18    43 1   
    44    19    44 1   
    45    19    45 1   
    46    20    21 1   
    47    20    50 1   
    48    21    46 1   
    49    22    23 1   
    50    22    47 1   
    51    23    48 1   
    52    23    49 1   
    53    31    50 1   
    54    32    50 1   
@<TRIPOS>SUBSTRUCTURE
     1 XRM         1 TEMP              0 ****  ****    0 ROOT
