@<TRIPOS>MOLECULE
XRM
   51    54     1     0     0
SMALL
No Charge or Current Charge


@<TRIPOS>ATOM
      1 C4         -24.8770   -13.6540    11.3450 ca         1 XRM      -0.311600
      2 C5         -23.6160   -14.2460    11.1560 ca         1 XRM       0.262400
      3 C6         -23.2050   -14.5830     9.8610 ca         1 XRM      -0.225000
      4 C7         -25.2890   -13.3080    12.7250 c          1 XRM       0.596600
      5 C13        -24.8220   -16.7570     7.1200 c5         1 XRM      -0.097900
      6 C15        -23.1300   -17.8220     5.6560 c5         1 XRM      -0.078400
      7 C20        -21.0300   -13.4900    17.7470 c6         1 XRM      -0.071400
      8 C21        -19.9040   -13.7860    18.7660 c6         1 XRM       0.160300
      9 C24        -22.3650   -15.3970    18.7510 c6         1 XRM      -0.071400
     10 C1         -24.0330   -14.3470     8.7610 ca         1 XRM       0.405000
     11 C2         -25.2760   -13.7490     8.9430 ca         1 XRM      -0.279000
     12 C3         -25.7010   -13.4070    10.2290 ca         1 XRM       0.297000
     13 N8         -24.3640   -13.6100    13.6570 ns         1 XRM      -0.427400
     14 C9         -23.1530   -14.1900    13.4050 cc         1 XRM       0.524900
     15 N10        -22.7170   -14.5270    12.1940 nd         1 XRM      -0.644100
     16 N11        -23.6270   -14.6760     7.4710 nu         1 XRM      -0.953200
     17 C12        -23.4170   -16.1390     7.3250 c5         1 XRM       0.222500
     18 C14        -24.4620   -18.1060     6.4300 c5         1 XRM      -0.078400
     19 C16        -22.8460   -16.3120     5.8990 c5         1 XRM      -0.097900
     20 S18        -23.2320   -14.4440    16.2510 ss         1 XRM      -0.422000
     21 C19        -21.8480   -14.7680    17.4360 c6         1 XRM       0.080300
     22 N22        -20.4460   -14.3980    20.0030 n7         1 XRM      -0.860400
     23 C23        -21.2040   -15.6450    19.7440 c6         1 XRM       0.160300
     24 F25        -26.9180   -12.8350    10.3640 f          1 XRM      -0.154000
     25 O26        -26.3530   -12.7980    13.0350 o          1 XRM      -0.527000
     26 H1         -22.2270   -15.0270     9.7110 ha         1 XRM       0.137000
     27 H2         -25.4610   -16.1470     6.4680 hc         1 XRM       0.051200
     28 H3         -25.3610   -16.9020     8.0630 hc         1 XRM       0.051200
     29 H4         -23.2140   -18.0520     4.5870 hc         1 XRM       0.046700
     30 H5         -22.3150   -18.4420     6.0500 hc         1 XRM       0.046700
     31 H6         -21.7670   -15.3670    14.5130 h1         1 XRM       0.092700
     32 H7         -21.5420   -13.6170    14.6680 h1         1 XRM       0.092700
     33 H9         -21.6940   -12.7120    18.1490 hc         1 XRM       0.059450
     34 H10        -19.1690   -14.4680    18.3120 h1         1 XRM       0.032950
     35 H11        -19.3790   -12.8520    19.0180 h1         1 XRM       0.032950
     36 H12        -23.1090   -14.7340    19.2140 hc         1 XRM       0.059450
     37 H13        -22.8780   -16.3440    18.5380 hc         1 XRM       0.059450
     38 H14        -25.9230   -13.5550     8.0940 ha         1 XRM       0.132000
     39 H15        -24.6070   -13.4080    14.6160 hn         1 XRM       0.337500
     40 H16        -24.1730   -14.2050     6.7510 hn         1 XRM       0.486000
     41 H17        -22.8100   -16.6310     8.1010 h1         1 XRM       0.068700
     42 H18        -25.2640   -18.4420     5.7620 hc         1 XRM       0.046700
     43 H19        -24.3150   -18.9010     7.1720 hc         1 XRM       0.046700
     44 H20        -21.7780   -16.0720     5.8420 hc         1 XRM       0.051200
     45 H21        -23.3630   -15.6940     5.1550 hc         1 XRM       0.051200
     46 H22        -21.1810   -15.4980    16.9540 h1         1 XRM       0.062700
     47 H23        -19.6650   -14.6090    20.6390 hn         1 XRM       0.416000
     48 H25        -21.6060   -16.0350    20.6910 h1         1 XRM       0.032950
     49 H26        -20.5260   -16.4070    19.3300 h1         1 XRM       0.032950
     50 C17        -22.2960   -14.4130    14.6320 c3         1 XRM       0.005300
     51 H8         -20.5930   -13.0840    16.8260 hc         1 XRM       0.059450
@<TRIPOS>BOND
     1     1     2 ar  
     2     1     4 1   
     3     1    12 ar  
     4     2     3 ar  
     5     2    15 1   
     6     3    10 ar  
     7     3    26 1   
     8     4    13 1   
     9     4    25 2   
    10     5    17 1   
    11     5    18 1   
    12     5    27 1   
    13     5    28 1   
    14     6    18 1   
    15     6    19 1   
    16     6    29 1   
    17     6    30 1   
    18     7     8 1   
    19     7    21 1   
    20     7    33 1   
    21     7    51 1   
    22     8    22 1   
    23     8    34 1   
    24     8    35 1   
    25     9    21 1   
    26     9    23 1   
    27     9    36 1   
    28     9    37 1   
    29    10    11 ar  
    30    10    16 1   
    31    11    12 ar  
    32    11    38 1   
    33    12    24 1   
    34    13    14 1   
    35    13    39 1   
    36    14    15 2   
    37    14    50 1   
    38    16    17 1   
    39    16    40 1   
    40    17    19 1   
    41    17    41 1   
    42    18    42 1   
    43    18    43 1   
    44    19    44 1   
    45    19    45 1   
    46    20    21 1   
    47    20    50 1   
    48    21    46 1   
    49    22    23 1   
    50    22    47 1   
    51    23    48 1   
    52    23    49 1   
    53    31    50 1   
    54    32    50 1   
@<TRIPOS>SUBSTRUCTURE
     1 XRM         1 TEMP              0 ****  ****    0 ROOT
