@<TRIPOS>MOLECULE
XRO
   34    35     1     0     0
SMALL
abcg2


@<TRIPOS>ATOM
      1 OAB         -3.2470    -3.0620    -0.0560 o          1 XRO      -0.688500
      2 CAP         -2.3070    -2.2460    -0.0450 c          1 XRO       0.717200
      3 OAE         -1.0970    -2.4720    -0.1690 o          1 XRO      -0.688500
      4 CAS         -2.7490    -0.7790     0.1310 cc         1 XRO       0.028400
      5 NAN         -4.1090    -0.6500     0.0650 ns         1 XRO      -0.493600
      6 CAU         -4.7950     0.5170     0.1570 c          1 XRO       0.606000
      7 OAC         -6.0080     0.5980     0.0950 o          1 XRO      -0.608000
      8 NAO         -3.9820     1.6070     0.3230 ns         1 XRO      -0.471500
      9 CAV         -2.6030     1.6090     0.4120 c          1 XRO       0.578200
     10 OAD         -2.0110     2.6670     0.5520 o          1 XRO      -0.589000
     11 CAT         -1.9580     0.3050     0.3250 cd         1 XRO      -0.295400
     12 CAM         -0.4620     0.2920     0.4200 c3         1 XRO       0.018800
     13 CAL          0.2080     0.4750    -0.9490 c3         1 XRO      -0.035100
     14 CAR          1.7020     0.3850    -0.8450 ca         1 XRO      -0.042300
     15 CAI          2.5020     1.5240    -0.8450 ca         1 XRO      -0.106500
     16 CAG          3.8810     1.4290    -0.7070 ca         1 XRO      -0.104000
     17 CAQ          4.4890     0.1890    -0.5660 ca         1 XRO      -0.118300
     18 CAK          5.9870     0.0830    -0.4010 c3         1 XRO       0.039000
     19 CAF          6.3590     0.0220     1.0070 c1         1 XRO       0.310900
     20 NAA          6.6340    -0.0260     2.1230 n1         1 XRO      -0.482000
     21 CAH          3.6970    -0.9560    -0.5650 ca         1 XRO      -0.104000
     22 CAJ          2.3220    -0.8560    -0.7030 ca         1 XRO      -0.106500
     23 H2          -4.4440     2.5060     0.3870 hn         1 XRO       0.319500
     24 H4          -0.1410     1.0980     1.0830 hc         1 XRO       0.058200
     25 H5          -0.1230    -0.6420     0.8590 hc         1 XRO       0.058200
     26 H6          -0.1650    -0.2980    -1.6210 hc         1 XRO       0.055200
     27 H7          -0.0810     1.4400    -1.3720 hc         1 XRO       0.055200
     28 H8           2.0460     2.5000    -0.9620 ha         1 XRO       0.132000
     29 H9           4.4850     2.3280    -0.7140 ha         1 XRO       0.103000
     30 H10          6.3790    -0.8100    -0.8900 hc         1 XRO       0.066200
     31 H11          6.4960     0.9400    -0.8460 hc         1 XRO       0.066200
     32 H12          4.1570    -1.9310    -0.4610 ha         1 XRO       0.103000
     33 H13          1.7140    -1.7540    -0.7030 ha         1 XRO       0.132000
     34 H14         -4.6220    -1.5160    -0.0540 hn         1 XRO       0.489000
@<TRIPOS>BOND
     1     1     2 1   
     2     2     3 1   
     3     2     4 1   
     4     4     5 1   
     5     4    11 2   
     6     5     6 1   
     7     5    34 1   
     8     6     7 2   
     9     6     8 1   
    10     8     9 1   
    11     8    23 1   
    12     9    10 2   
    13     9    11 1   
    14    11    12 1   
    15    12    13 1   
    16    12    24 1   
    17    12    25 1   
    18    13    14 1   
    19    13    26 1   
    20    13    27 1   
    21    14    15 ar  
    22    14    22 ar  
    23    15    16 ar  
    24    15    28 1   
    25    16    17 ar  
    26    16    29 1   
    27    17    18 1   
    28    17    21 ar  
    29    18    19 1   
    30    18    30 1   
    31    18    31 1   
    32    19    20 3   
    33    21    22 ar  
    34    21    32 1   
    35    22    33 1   
@<TRIPOS>SUBSTRUCTURE
     1 XRO         1 TEMP              0 ****  ****    0 ROOT
