@<TRIPOS>MOLECULE
XRO
   34    35     1     0     0
SMALL
No Charge or Current Charge


@<TRIPOS>ATOM
      1 OAB         -3.3350    -3.0990    -0.2330 o          1 XRO      -0.688500
      2 CAP         -2.4380    -2.2790    -0.0700 c          1 XRO       0.717200
      3 OAE         -1.2610    -2.6110    -0.0630 o          1 XRO      -0.688500
      4 CAS         -2.8450    -0.8220     0.1080 cc         1 XRO       0.028400
      5 NAN         -4.2160    -0.5780     0.0430 ns         1 XRO      -0.493600
      6 CAU         -4.8270     0.6260     0.1470 c          1 XRO       0.606000
      7 OAC         -6.0330     0.7590     0.0780 o          1 XRO      -0.608000
      8 NAO         -3.9790     1.6620     0.3310 ns         1 XRO      -0.471500
      9 CAV         -2.6210     1.6360     0.4270 c          1 XRO       0.578200
     10 OAD         -1.9970     2.6730     0.5880 o          1 XRO      -0.589000
     11 CAT         -2.0080     0.2770     0.3140 cd         1 XRO      -0.295400
     12 CAM         -0.4900     0.2460     0.4360 c3         1 XRO       0.018800
     13 CAL          0.2130     0.3420    -0.9350 c3         1 XRO      -0.035100
     14 CAR          1.7300     0.2960    -0.8080 ca         1 XRO      -0.042300
     15 CAI          2.4790     1.4870    -0.7700 ca         1 XRO      -0.106500
     16 CAG          3.8790     1.4420    -0.6480 ca         1 XRO      -0.104000
     17 CAQ          4.5460     0.2040    -0.5620 ca         1 XRO      -0.118300
     18 CAK          6.0660     0.1550    -0.4280 c3         1 XRO       0.039000
     19 CAF          6.4840     0.1730     0.9800 c1         1 XRO       0.310900
     20 NAA          6.8440     0.1860     2.0890 n1         1 XRO      -0.482000
     21 CAH          3.7950    -0.9870    -0.5980 ca         1 XRO      -0.104000
     22 CAJ          2.3960    -0.9410    -0.7200 ca         1 XRO      -0.106500
     23 H2          -4.4070     2.5700     0.4080 hn         1 XRO       0.319500
     24 H4          -0.1280     1.0670     1.0670 hc         1 XRO       0.058200
     25 H5          -0.1540    -0.6550     0.9600 hc         1 XRO       0.058200
     26 H6          -0.1330    -0.4780    -1.5760 hc         1 XRO       0.055200
     27 H7          -0.0990     1.2680    -1.4320 hc         1 XRO       0.055200
     28 H8           1.9760     2.4500    -0.8320 ha         1 XRO       0.132000
     29 H9           4.4430     2.3710    -0.6190 ha         1 XRO       0.103000
     30 H10          6.4680    -0.7480    -0.9000 hc         1 XRO       0.066200
     31 H11          6.5290     1.0070    -0.9400 hc         1 XRO       0.066200
     32 H12          4.2950    -1.9510    -0.5300 ha         1 XRO       0.103000
     33 H13          1.8270    -1.8680    -0.7440 ha         1 XRO       0.132000
     34 H14         -4.8440    -1.3640    -0.1030 hn         1 XRO       0.489000
@<TRIPOS>BOND
     1     1     2 1   
     2     2     3 1   
     3     2     4 1   
     4     4     5 1   
     5     4    11 2   
     6     5     6 1   
     7     5    34 1   
     8     6     7 2   
     9     6     8 1   
    10     8     9 1   
    11     8    23 1   
    12     9    10 2   
    13     9    11 1   
    14    11    12 1   
    15    12    13 1   
    16    12    24 1   
    17    12    25 1   
    18    13    14 1   
    19    13    26 1   
    20    13    27 1   
    21    14    15 ar  
    22    14    22 ar  
    23    15    16 ar  
    24    15    28 1   
    25    16    17 ar  
    26    16    29 1   
    27    17    18 1   
    28    17    21 ar  
    29    18    19 1   
    30    18    30 1   
    31    18    31 1   
    32    19    20 3   
    33    21    22 ar  
    34    21    32 1   
    35    22    33 1   
@<TRIPOS>SUBSTRUCTURE
     1 XRO         1 TEMP              0 ****  ****    0 ROOT
