@<TRIPOS>MOLECULE
XRP
   35    37     1     0     0
SMALL
abcg2


@<TRIPOS>ATOM
      1 C13        -37.6310     5.1200   520.9490 ca         1 XRP      -0.097000
      2 C15        -39.6290     3.8620   520.5190 ca         1 XRP      -0.097000
      3 C17        -37.6960     6.0410   516.6710 cc         1 XRP       0.433400
      4 C20        -43.2000     3.6980   513.9980 ca         1 XRP      -0.114500
      5 C02        -43.6590     3.4340   515.2890 ca         1 XRP      -0.070300
      6 C03        -42.7720     2.8520   516.1890 ca         1 XRP      -0.114500
      7 C04        -41.4670     2.5520   515.8180 ca         1 XRP      -0.088500
      8 C05        -41.0130     2.8240   514.5330 ca         1 XRP      -0.087300
      9 C06        -39.6140     2.4780   514.1230 c3         1 XRP       0.092900
     10 C08        -38.3270     4.6350   515.2710 cd         1 XRP       0.633300
     11 C11        -38.3720     4.7760   518.6970 ca         1 XRP       0.013800
     12 C12        -37.4460     5.3040   519.5870 ca         1 XRP      -0.108500
     13 C14        -38.7180     4.3970   521.4200 ca         1 XRP      -0.108000
     14 C16        -39.4660     4.0520   519.1550 ca         1 XRP      -0.108500
     15 C19        -41.9000     3.4000   513.6260 ca         1 XRP      -0.088500
     16 N09        -38.6140     4.0660   516.4140 nc         1 XRP      -0.538800
     17 N10        -38.2050     4.9790   517.3110 na         1 XRP       0.036500
     18 N18        -37.7570     5.8580   515.3750 nd         1 XRP      -0.677000
     19 H131       -36.9100     5.5330   521.6420 ha         1 XRP       0.120000
     20 H151       -40.4800     3.2980   520.8760 ha         1 XRP       0.120000
     21 H171       -37.3180     6.9160   517.1760 h5         1 XRP       0.068100
     22 H201       -43.8740     4.1400   513.2720 ha         1 XRP       0.110000
     23 H012       -45.1190     4.8320   516.0180 hc         1 XRP       0.042033
     24 H013       -45.7600     3.6670   514.8710 hc         1 XRP       0.042033
     25 H011       -45.4020     3.1750   516.5280 hc         1 XRP       0.042033
     26 H031       -43.1020     2.6270   517.1960 ha         1 XRP       0.110000
     27 H041       -40.7970     2.0980   516.5370 ha         1 XRP       0.117000
     28 H062       -39.6080     1.8920   513.2020 h1         1 XRP       0.082700
     29 H061       -39.1020     1.8910   514.8850 h1         1 XRP       0.082700
     30 H121       -36.5770     5.8400   519.2280 ha         1 XRP       0.131500
     31 H141       -38.8530     4.2490   522.4830 ha         1 XRP       0.120000
     32 H161       -40.1850     3.6470   518.4560 ha         1 XRP       0.131500
     33 H191       -41.5710     3.6170   512.6160 ha         1 XRP       0.117000
     34 S07        -38.5910     3.9260   513.7020 ss         1 XRP      -0.299300
     35 C01        -45.0590     3.7900   515.6970 c3         1 XRP      -0.046800
@<TRIPOS>BOND
     1     1    12 ar  
     2     1    13 ar  
     3     1    19 1   
     4     2    13 ar  
     5     2    14 ar  
     6     2    20 1   
     7     3    17 1   
     8     3    18 2   
     9     3    21 1   
    10     4     5 ar  
    11     4    15 ar  
    12     4    22 1   
    13     5     6 ar  
    14     5    35 1   
    15     6     7 ar  
    16     6    26 1   
    17     7     8 ar  
    18     7    27 1   
    19     8     9 1   
    20     8    15 ar  
    21     9    28 1   
    22     9    29 1   
    23     9    34 1   
    24    10    16 2   
    25    10    18 1   
    26    10    34 1   
    27    11    12 ar  
    28    11    14 ar  
    29    11    17 1   
    30    12    30 1   
    31    13    31 1   
    32    14    32 1   
    33    15    33 1   
    34    16    17 1   
    35    23    35 1   
    36    24    35 1   
    37    25    35 1   
@<TRIPOS>SUBSTRUCTURE
     1 XRP         1 TEMP              0 ****  ****    0 ROOT
