@<TRIPOS>MOLECULE
XRP
   35    37     1     0     0
SMALL
No Charge or Current Charge


@<TRIPOS>ATOM
      1 C13        -37.5890     5.0670   520.9190 ca         1 XRP      -0.097000
      2 C15        -39.7120     3.9400   520.5470 ca         1 XRP      -0.097000
      3 C17        -37.8250     6.1460   516.6760 cc         1 XRP       0.433400
      4 C20        -43.1350     3.7750   514.0270 ca         1 XRP      -0.114500
      5 C02        -43.5920     3.4470   515.3180 ca         1 XRP      -0.070300
      6 C03        -42.7330     2.7670   516.2010 ca         1 XRP      -0.114500
      7 C04        -41.4340     2.4150   515.7970 ca         1 XRP      -0.088500
      8 C05        -40.9740     2.7460   514.5070 ca         1 XRP      -0.087300
      9 C06        -39.5620     2.3720   514.0690 c3         1 XRP       0.092900
     10 C08        -38.3360     4.6620   515.2490 cd         1 XRP       0.633300
     11 C11        -38.4430     4.8040   518.6430 ca         1 XRP       0.013800
     12 C12        -37.4510     5.2670   519.5330 ca         1 XRP      -0.108500
     13 C14        -38.7200     4.4050   521.4250 ca         1 XRP      -0.108000
     14 C16        -39.5750     4.1380   519.1620 ca         1 XRP      -0.108500
     15 C19        -41.8350     3.4250   513.6240 ca         1 XRP      -0.088500
     16 N09        -38.6240     4.0330   516.3770 nc         1 XRP      -0.538800
     17 N10        -38.3130     5.0040   517.2640 na         1 XRP       0.036500
     18 N18        -37.8320     5.9440   515.3670 nd         1 XRP      -0.677000
     19 H131       -36.8190     5.4250   521.5990 ha         1 XRP       0.120000
     20 H151       -40.5880     3.4270   520.9380 ha         1 XRP       0.120000
     21 H171       -37.5110     7.0290   517.2190 h5         1 XRP       0.068100
     22 H201       -43.7880     4.3040   513.3360 ha         1 XRP       0.110000
     23 H012       -45.0020     4.8230   516.2220 hc         1 XRP       0.042033
     24 H013       -45.6890     3.8560   514.9060 hc         1 XRP       0.042033
     25 H011       -45.3980     3.1160   516.4850 hc         1 XRP       0.042033
     26 H031       -43.0720     2.5100   517.2020 ha         1 XRP       0.110000
     27 H041       -40.7810     1.8910   516.4920 ha         1 XRP       0.117000
     28 H062       -39.6200     1.7500   513.1670 h1         1 XRP       0.082700
     29 H061       -39.0590     1.7840   514.8480 h1         1 XRP       0.082700
     30 H121       -36.5650     5.7740   519.1580 ha         1 XRP       0.131500
     31 H141       -38.8260     4.2510   522.4970 ha         1 XRP       0.120000
     32 H161       -40.3520     3.7770   518.4910 ha         1 XRP       0.131500
     33 H191       -41.4950     3.6860   512.6240 ha         1 XRP       0.117000
     34 S07        -38.5480     3.8730   513.6860 ss         1 XRP      -0.299300
     35 C01        -44.9970     3.8310   515.7560 c3         1 XRP      -0.046800
@<TRIPOS>BOND
     1     1    12 ar  
     2     1    13 ar  
     3     1    19 1   
     4     2    13 ar  
     5     2    14 ar  
     6     2    20 1   
     7     3    17 1   
     8     3    18 2   
     9     3    21 1   
    10     4     5 ar  
    11     4    15 ar  
    12     4    22 1   
    13     5     6 ar  
    14     5    35 1   
    15     6     7 ar  
    16     6    26 1   
    17     7     8 ar  
    18     7    27 1   
    19     8     9 1   
    20     8    15 ar  
    21     9    28 1   
    22     9    29 1   
    23     9    34 1   
    24    10    16 2   
    25    10    18 1   
    26    10    34 1   
    27    11    12 ar  
    28    11    14 ar  
    29    11    17 1   
    30    12    30 1   
    31    13    31 1   
    32    14    32 1   
    33    15    33 1   
    34    16    17 1   
    35    23    35 1   
    36    24    35 1   
    37    25    35 1   
@<TRIPOS>SUBSTRUCTURE
     1 XRP         1 TEMP              0 ****  ****    0 ROOT
