@<TRIPOS>MOLECULE
XRR
   49    51     1     0     0
SMALL
abcg2


@<TRIPOS>ATOM
      1 O10        -23.2930    13.6870    25.3200 o          1 XRR      -0.567000
      2 C14        -25.9080    11.2910    32.9070 cc         1 XRR      -0.126000
      3 C15        -24.9560    13.2850    33.5710 cd         1 XRR      -0.289000
      4 C17        -25.8480     9.7670    35.0110 c          1 XRR       0.607700
      5 O18        -25.3180     9.6420    36.1240 o          1 XRR      -0.653100
      6 N19        -26.6430     8.8410    34.4550 ns         1 XRR      -0.424900
      7 C20        -26.8510     7.4980    34.9750 c3         1 XRR      -0.041300
      8 C21        -28.1630     7.3770    35.7670 c3         1 XRR      -0.048400
      9 C22        -28.2290     8.2710    36.9990 c3         1 XRR      -0.194400
     10 C23        -29.5110     8.1260    37.8400 c          1 XRR       0.705000
     11 O24        -29.8850     9.1490    38.4750 o          1 XRR      -0.767000
     12 O25        -30.0740     7.0000    37.8660 o          1 XRR      -0.767000
     13 C26        -26.8720     6.4980    33.7890 c          1 XRR       0.708000
     14 O27        -26.6910     5.2930    34.0820 o          1 XRR      -0.744500
     15 O28        -27.1020     6.9710    32.6470 o          1 XRR      -0.744500
     16 C29        -27.3180    13.7930    29.2720 c3         1 XRR      -0.006100
     17 C30        -27.1520    13.2010    30.6800 c3         1 XRR      -0.075400
     18 C31        -25.6930    13.1670    31.1400 c3         1 XRR      -0.003100
     19 C32        -25.5180    12.6060    32.5210 cc         1 XRR      -0.112300
     20 C02        -24.3550    10.3040    25.1110 cc         1 XRR       0.712800
     21 C04        -23.9500    12.6800    25.5850 c          1 XRR       0.612600
     22 C05        -25.5460    13.5390    27.4290 cc         1 XRR      -0.068000
     23 C06        -26.5480    13.0680    28.2150 cd         1 XRR      -0.207300
     24 C08        -25.0030    12.5520    26.5480 cc         1 XRR      -0.283600
     25 C09        -25.6160    11.3090    26.6800 cd         1 XRR       0.118400
     26 C12        -25.6320    11.0000    34.2190 cd         1 XRR      -0.213600
     27 N01        -25.3270    10.1850    25.9900 nd         1 XRR      -0.662100
     28 N03        -23.6920    11.4830    24.9060 ns         1 XRR      -0.448400
     29 S07        -26.8600    11.3660    27.8930 ss         1 XRR       0.266000
     30 S13        -24.8790    12.3450    35.0060 ss         1 XRR       0.251000
     31 H1         -24.5310     8.4100    24.4350 hn         1 XRR       0.498500
     32 H2         -23.3560     9.3450    23.5930 hn         1 XRR       0.498500
     33 H3         -26.3610    10.5880    32.2200 ha         1 XRR       0.148000
     34 H4         -24.5760    14.2950    33.5670 h4         1 XRR       0.124000
     35 H5         -26.9540     8.9490    33.4990 hn         1 XRR       0.327500
     36 H6         -26.0140     7.2540    35.6290 h1         1 XRR       0.056700
     37 H7         -28.9950     7.6130    35.0950 hc         1 XRR       0.047200
     38 H8         -28.2820     6.3360    36.0660 hc         1 XRR       0.047200
     39 H9         -27.3890     8.0360    37.6620 hc         1 XRR       0.020200
     40 H10        -28.1140     9.3190    36.7220 hc         1 XRR       0.020200
     41 H13        -26.9790    14.8320    29.2690 hc         1 XRR       0.044700
     42 H14        -28.3830    13.8040    29.0200 hc         1 XRR       0.044700
     43 H15        -27.7440    13.7950    31.3810 hc         1 XRR       0.055200
     44 H16        -27.5670    12.1890    30.6990 hc         1 XRR       0.055200
     45 H17        -25.1130    12.5660    30.4330 hc         1 XRR       0.038700
     46 H18        -25.2760    14.1760    31.1060 hc         1 XRR       0.038700
     47 H19        -25.1920    14.5590    27.4780 ha         1 XRR       0.138000
     48 H20        -22.9530    11.5230    24.2150 hn         1 XRR       0.314500
     49 N11        -23.9560     9.2350    24.3930 nv         1 XRR      -1.053200
@<TRIPOS>BOND
     1     1    21 2   
     2     2    19 1   
     3     2    26 2   
     4     2    33 1   
     5     3    19 2   
     6     3    30 1   
     7     3    34 1   
     8     4     5 2   
     9     4     6 1   
    10     4    26 1   
    11     6     7 1   
    12     6    35 1   
    13     7     8 1   
    14     7    13 1   
    15     7    36 1   
    16     8     9 1   
    17     8    37 1   
    18     8    38 1   
    19     9    10 1   
    20     9    39 1   
    21     9    40 1   
    22    10    11 1   
    23    10    12 1   
    24    13    14 1   
    25    13    15 1   
    26    16    17 1   
    27    16    23 1   
    28    16    41 1   
    29    16    42 1   
    30    17    18 1   
    31    17    43 1   
    32    17    44 1   
    33    18    19 1   
    34    18    45 1   
    35    18    46 1   
    36    20    27 2   
    37    20    28 1   
    38    20    49 1   
    39    21    24 1   
    40    21    28 1   
    41    22    23 2   
    42    22    24 1   
    43    22    47 1   
    44    23    29 1   
    45    24    25 2   
    46    25    27 1   
    47    25    29 1   
    48    26    30 1   
    49    28    48 1   
    50    31    49 1   
    51    32    49 1   
@<TRIPOS>SUBSTRUCTURE
     1 XRR         1 TEMP              0 ****  ****    0 ROOT
