@<TRIPOS>MOLECULE
XRR
   49    51     1     0     0
SMALL
No Charge or Current Charge


@<TRIPOS>ATOM
      1 O10        -23.1200    12.9080    25.8380 o          1 XRR      -0.567000
      2 C14        -25.6290    11.5110    33.2240 cc         1 XRR      -0.126000
      3 C15        -24.9380    13.6250    33.8810 cd         1 XRR      -0.289000
      4 C17        -25.6930     9.9900    35.2820 c          1 XRR       0.607700
      5 O18        -25.5230     9.8510    36.4860 o          1 XRR      -0.653100
      6 N19        -26.1100     8.9630    34.4630 ns         1 XRR      -0.424900
      7 C20        -26.4470     7.5870    34.9020 c3         1 XRR      -0.041300
      8 C21        -27.9720     7.3930    35.1160 c3         1 XRR      -0.048400
      9 C22        -28.5920     8.2850    36.2230 c3         1 XRR      -0.194400
     10 C23        -30.0740     7.9220    36.4290 c          1 XRR       0.705000
     11 O24        -30.9110     8.4940    35.7480 o          1 XRR      -0.767000
     12 O25        -30.3470     7.0410    37.2300 o          1 XRR      -0.767000
     13 C26        -25.8880     6.5500    33.8800 c          1 XRR       0.708000
     14 O27        -25.1950     5.6360    34.3030 o          1 XRR      -0.744500
     15 O28        -26.0810     6.7450    32.6870 o          1 XRR      -0.744500
     16 C29        -27.0980    14.0300    29.5260 c3         1 XRR      -0.006100
     17 C30        -26.9350    13.5000    30.9680 c3         1 XRR      -0.075400
     18 C31        -25.4650    13.2850    31.3930 c3         1 XRR      -0.003100
     19 C32        -25.3360    12.8420    32.8270 cc         1 XRR      -0.112300
     20 C02        -25.0260    10.0400    25.2830 cc         1 XRR       0.712800
     21 C04        -24.0150    12.0830    25.9310 c          1 XRR       0.612600
     22 C05        -25.4060    13.2390    27.7370 cc         1 XRR      -0.068000
     23 C06        -26.5520    13.0880    28.4820 cd         1 XRR      -0.207300
     24 C08        -25.1640    12.1700    26.8320 cc         1 XRR      -0.283600
     25 C09        -26.1330    11.2010    26.8890 cd         1 XRR       0.118400
     26 C12        -25.4610    11.2720    34.5710 cd         1 XRR      -0.213600
     27 N01        -26.0740    10.0660    26.0740 nd         1 XRR      -0.662100
     28 N03        -24.0480    10.9590    25.1880 ns         1 XRR      -0.448400
     29 S07        -27.4010    11.5750    28.0760 ss         1 XRR       0.266000
     30 S13        -24.9180    12.7290    35.4110 ss         1 XRR       0.251000
     31 H1         -25.7540     8.4290    24.4430 hn         1 XRR       0.498500
     32 H2         -24.4620     9.1470    23.5870 hn         1 XRR       0.498500
     33 H3         -25.9580    10.7720    32.4990 ha         1 XRR       0.148000
     34 H4         -24.6560    14.6700    33.8650 h4         1 XRR       0.124000
     35 H5         -26.1850     9.1730    33.4770 hn         1 XRR       0.327500
     36 H6         -25.9400     7.3930    35.8560 h1         1 XRR       0.056700
     37 H7         -28.4960     7.5750    34.1690 hc         1 XRR       0.047200
     38 H8         -28.1520     6.3410    35.3730 hc         1 XRR       0.047200
     39 H9         -28.0180     8.0760    37.1340 hc         1 XRR       0.020200
     40 H10        -28.5010     9.3190    35.8690 hc         1 XRR       0.020200
     41 H13        -26.6050    15.0070    29.4460 hc         1 XRR       0.044700
     42 H14        -28.1630    14.2110    29.3360 hc         1 XRR       0.044700
     43 H15        -27.4020    14.2130    31.6580 hc         1 XRR       0.055200
     44 H16        -27.4850    12.5570    31.0720 hc         1 XRR       0.055200
     45 H17        -24.9990    12.5390    30.7380 hc         1 XRR       0.038700
     46 H18        -24.9090    14.2190    31.2450 hc         1 XRR       0.038700
     47 H19        -24.7360    14.0910    27.8240 ha         1 XRR       0.138000
     48 H20        -23.2810    10.8090    24.5550 hn         1 XRR       0.314500
     49 N11        -24.9150     8.9950    24.4800 nv         1 XRR      -1.053200
@<TRIPOS>BOND
     1     1    21 2   
     2     2    19 1   
     3     2    26 2   
     4     2    33 1   
     5     3    19 2   
     6     3    30 1   
     7     3    34 1   
     8     4     5 2   
     9     4     6 1   
    10     4    26 1   
    11     6     7 1   
    12     6    35 1   
    13     7     8 1   
    14     7    13 1   
    15     7    36 1   
    16     8     9 1   
    17     8    37 1   
    18     8    38 1   
    19     9    10 1   
    20     9    39 1   
    21     9    40 1   
    22    10    11 1   
    23    10    12 1   
    24    13    14 1   
    25    13    15 1   
    26    16    17 1   
    27    16    23 1   
    28    16    41 1   
    29    16    42 1   
    30    17    18 1   
    31    17    43 1   
    32    17    44 1   
    33    18    19 1   
    34    18    45 1   
    35    18    46 1   
    36    20    27 2   
    37    20    28 1   
    38    20    49 1   
    39    21    24 1   
    40    21    28 1   
    41    22    23 2   
    42    22    24 1   
    43    22    47 1   
    44    23    29 1   
    45    24    25 2   
    46    25    27 1   
    47    25    29 1   
    48    26    30 1   
    49    28    48 1   
    50    31    49 1   
    51    32    49 1   
@<TRIPOS>SUBSTRUCTURE
     1 XRR         1 TEMP              0 ****  ****    0 ROOT
