@<TRIPOS>MOLECULE
XRS
   33    33     1     0     0
SMALL
bcc


@<TRIPOS>ATOM
      1 C10          2.0400    -0.1810     0.0030 cc         1 XRS       0.644800
      2 N13          2.0870    -1.4830     0.0160 nd         1 XRS      -0.743000
      3 C9           3.4250    -1.7820    -0.1020 cd         1 XRS       0.320200
      4 C8           4.1620    -0.6440    -0.1840 cc         1 XRS      -0.273600
      5 N12          3.2540     0.3930    -0.1230 na         1 XRS      -0.207900
      6 O14          0.9730     0.5990     0.1020 os         1 XRS      -0.455100
      7 C6          -0.2920    -0.0550     0.2190 c3         1 XRS       0.167400
      8 C5          -1.3540     1.0220     0.2490 c3         1 XRS      -0.079400
      9 C4          -2.7330     0.4630     0.5970 c3         1 XRS       0.189500
     10 N11         -3.0630    -0.6910    -0.2350 n3         1 XRS      -0.731600
     11 C3          -3.7750     1.5830     0.5960 c3         1 XRS      -0.122100
     12 C2          -4.1210    -1.5030     0.3210 c3         1 XRS       0.158100
     13 C1          -3.3080    -0.3810    -1.6270 c3         1 XRS       0.158100
     14 C7           3.5460     1.8080    -0.1210 c3         1 XRS       0.041600
     15 H9           3.7750    -2.8020    -0.1240 h4         1 XRS       0.036100
     16 H8           5.2190    -0.4690    -0.2860 h4         1 XRS       0.174000
     17 H71C         3.4810     2.2250     0.8840 h1         1 XRS       0.051033
     18 H72C         4.5540     1.9600    -0.4950 h1         1 XRS       0.051033
     19 H73C         2.8570     2.3420    -0.7710 h1         1 XRS       0.051033
     20 H61C        -0.4360    -0.7380    -0.6190 h1         1 XRS       0.060700
     21 H62C        -0.3170    -0.6500     1.1370 h1         1 XRS       0.060700
     22 H51C        -1.0970     1.7670     1.0070 hc         1 XRS       0.050200
     23 H52C        -1.3760     1.5540    -0.7080 hc         1 XRS       0.050200
     24 H4          -2.6670     0.0730     1.6190 h1         1 XRS       0.054700
     25 H31C        -4.7750     1.2090     0.8190 hc         1 XRS       0.038367
     26 H32C        -3.5310     2.3280     1.3550 hc         1 XRS       0.038367
     27 H33C        -3.8150     2.0990    -0.3650 hc         1 XRS       0.038367
     28 H21C        -5.1040    -1.0090     0.3500 h1         1 XRS       0.029867
     29 H22C        -4.2360    -2.4140    -0.2700 h1         1 XRS       0.029867
     30 H23C        -3.8690    -1.7990     1.3410 h1         1 XRS       0.029867
     31 H11C        -2.4640     0.1560    -2.0610 h1         1 XRS       0.029867
     32 H12C        -3.4210    -1.3090    -2.1900 h1         1 XRS       0.029867
     33 H13C        -4.2130     0.2190    -1.8010 h1         1 XRS       0.029867
@<TRIPOS>BOND
     1     1     2 2   
     2     1     5 1   
     3     1     6 1   
     4     2     3 1   
     5     3     4 2   
     6     3    15 1   
     7     4     5 1   
     8     4    16 1   
     9     5    14 1   
    10     6     7 1   
    11     7     8 1   
    12     7    20 1   
    13     7    21 1   
    14     8     9 1   
    15     8    22 1   
    16     8    23 1   
    17     9    10 1   
    18     9    11 1   
    19     9    24 1   
    20    10    12 1   
    21    10    13 1   
    22    11    25 1   
    23    11    26 1   
    24    11    27 1   
    25    12    28 1   
    26    12    29 1   
    27    12    30 1   
    28    13    31 1   
    29    13    32 1   
    30    13    33 1   
    31    14    17 1   
    32    14    18 1   
    33    14    19 1   
@<TRIPOS>SUBSTRUCTURE
     1 XRS         1 TEMP              0 ****  ****    0 ROOT
