@<TRIPOS>MOLECULE
XRS
   33    33     1     0     0
SMALL
No Charge or Current Charge


@<TRIPOS>ATOM
      1 C10          2.1500    -0.1320     0.0420 cc         1 XRS       0.644800
      2 N13          2.1860    -1.4430     0.1730 nd         1 XRS      -0.743000
      3 C9           3.5280    -1.7510     0.0440 cd         1 XRS       0.254900
      4 C8           4.2820    -0.6160    -0.1630 cc         1 XRS      -0.241000
      5 N12          3.3830     0.4320    -0.1620 na         1 XRS      -0.186500
      6 O14          0.9830     0.5790     0.1140 os         1 XRS      -0.478300
      7 C6          -0.2710    -0.1000     0.3110 c3         1 XRS       0.190600
      8 C5          -1.3770     0.9730     0.3510 c3         1 XRS      -0.079400
      9 C4          -2.7850     0.3940     0.6470 c3         1 XRS       0.189500
     10 N11         -3.1760    -0.7090    -0.2810 n3         1 XRS      -0.731600
     11 C3          -3.8340     1.5300     0.7410 c3         1 XRS      -0.122100
     12 C2          -4.3300    -1.5100     0.1930 c3         1 XRS       0.158100
     13 C1          -3.3110    -0.3240    -1.7090 c3         1 XRS       0.158100
     14 C7           3.6790     1.8590    -0.3430 c3         1 XRS       0.070900
     15 H9           3.8820    -2.7740     0.1060 h4         1 XRS       0.036100
     16 H8           5.3480    -0.4920    -0.3030 h4         1 XRS       0.156000
     17 H71C         3.3580     2.4160     0.5460 h1         1 XRS       0.051033
     18 H72C         4.7570     2.0020    -0.4880 h1         1 XRS       0.051033
     19 H73C         3.1420     2.2380    -1.2210 h1         1 XRS       0.051033
     20 H61C        -0.4660    -0.8050    -0.5090 h1         1 XRS       0.060700
     21 H62C        -0.2690    -0.6590     1.2560 h1         1 XRS       0.060700
     22 H51C        -1.1270     1.7010     1.1320 hc         1 XRS       0.050200
     23 H52C        -1.3870     1.5220    -0.5970 hc         1 XRS       0.050200
     24 H4          -2.7160    -0.0360     1.6570 h1         1 XRS       0.054700
     25 H31C        -4.8160     1.1430     1.0360 hc         1 XRS       0.038367
     26 H32C        -3.5310     2.2650     1.4960 hc         1 XRS       0.038367
     27 H33C        -3.9400     2.0550    -0.2150 hc         1 XRS       0.038367
     28 H21C        -5.2620    -0.9320     0.1450 h1         1 XRS       0.029867
     29 H22C        -4.4560    -2.4080    -0.4270 h1         1 XRS       0.029867
     30 H23C        -4.1780    -1.8370     1.2300 h1         1 XRS       0.029867
     31 H11C        -2.3950     0.1500    -2.0850 h1         1 XRS       0.029867
     32 H12C        -3.4990    -1.2110    -2.3290 h1         1 XRS       0.029867
     33 H13C        -4.1470     0.3720    -1.8540 h1         1 XRS       0.029867
@<TRIPOS>BOND
     1     1     2 2   
     2     1     5 1   
     3     1     6 1   
     4     2     3 1   
     5     3     4 2   
     6     3    15 1   
     7     4     5 1   
     8     4    16 1   
     9     5    14 1   
    10     6     7 1   
    11     7     8 1   
    12     7    20 1   
    13     7    21 1   
    14     8     9 1   
    15     8    22 1   
    16     8    23 1   
    17     9    10 1   
    18     9    11 1   
    19     9    24 1   
    20    10    12 1   
    21    10    13 1   
    22    11    25 1   
    23    11    26 1   
    24    11    27 1   
    25    12    28 1   
    26    12    29 1   
    27    12    30 1   
    28    13    31 1   
    29    13    32 1   
    30    13    33 1   
    31    14    17 1   
    32    14    18 1   
    33    14    19 1   
@<TRIPOS>SUBSTRUCTURE
     1 XRS         1 TEMP              0 ****  ****    0 ROOT
