@<TRIPOS>MOLECULE
XRU
   66    67     1     0     0
SMALL
No Charge or Current Charge


@<TRIPOS>ATOM
      1 N3         -10.6490     7.7880   -16.8290 n3         1 XRU      -0.731600
      2 C4         -10.2450     6.3480   -16.7630 c3         1 XRU       0.142800
      3 C5         -11.3770     5.3130   -17.0010 c3         1 XRU       0.103000
      4 C7         -10.2060     3.3510   -18.0800 c          1 XRU       0.610700
      5 C8          -9.7170     1.9170   -17.9220 ca         1 XRU      -0.108600
      6 C13         -8.9380    -0.1230   -19.0830 ca         1 XRU       0.000000
      7 C15         -8.1850    -2.0030   -20.6710 c          1 XRU       0.668100
      8 C17         -8.3150    -1.2330   -23.1040 c5         1 XRU       0.102000
      9 C21         -6.3510    -5.4440   -24.5810 c3         1 XRU       0.166300
     10 C22         -6.6080    -6.7770   -25.3130 c3         1 XRU      -0.109100
     11 C24         -5.9190    -3.4350   -26.9570 c3         1 XRU      -0.109100
     12 C1          -8.4790     8.5430   -17.9700 c3         1 XRU      -0.090100
     13 C2          -9.4790     8.7140   -16.8060 c3         1 XRU       0.170300
     14 N6         -10.8840     3.9290   -17.0300 ns         1 XRU      -0.495900
     15 C9          -9.5600     1.2390   -16.6790 ca         1 XRU       0.109000
     16 Cl10        -9.8350     1.9790   -15.0970 cl         1 XRU      -0.209000
     17 C11         -9.1100    -0.0920   -16.6570 ca         1 XRU      -0.079000
     18 C12         -8.8050    -0.7750   -17.8430 ca         1 XRU      -0.110000
     19 N14         -8.6450    -0.7380   -20.3320 ns         1 XRU      -0.164000
     20 N16         -8.0200    -2.2280   -22.0500 n          1 XRU      -0.437800
     21 C18         -8.2970    -2.1120   -24.3810 c5         1 XRU      -0.091400
     22 C19         -7.1500    -3.1120   -24.0620 c5         1 XRU       0.164500
     23 N20         -7.2630    -4.3210   -24.9590 n3         1 XRU      -0.722600
     24 C23         -7.2440    -4.0210   -26.4250 c3         1 XRU       0.166300
     25 C25         -7.5150    -3.5080   -22.5940 c5         1 XRU       0.115000
     26 O26         -7.9290    -2.8830   -19.8590 o          1 XRU      -0.629100
     27 C27         -9.3870     1.2090   -19.1060 ca         1 XRU      -0.131000
     28 O28        -10.0130     3.9830   -19.1110 o          1 XRU      -0.591100
     29 C29        -11.6790     8.1410   -15.8080 c3         1 XRU       0.170300
     30 C30        -12.3030     9.5450   -15.9580 c3         1 XRU      -0.090100
     31 H2          -9.7840     6.1360   -15.7880 h1         1 XRU       0.041700
     32 H3          -9.4810     6.1430   -17.5220 h1         1 XRU       0.041700
     33 H4         -11.8770     5.5350   -17.9530 h1         1 XRU       0.063200
     34 H5         -12.1240     5.3850   -16.2010 h1         1 XRU       0.063200
     35 H6          -7.5330    -0.4610   -23.1360 h1         1 XRU       0.044700
     36 H7          -9.2890    -0.7440   -22.9660 h1         1 XRU       0.044700
     37 H8          -6.4530    -5.6630   -23.5100 h1         1 XRU       0.041950
     38 H9          -5.3030    -5.1530   -24.7360 h1         1 XRU       0.041950
     39 H10         -6.0130    -7.5760   -24.8550 hc         1 XRU       0.038200
     40 H11         -7.6660    -7.0580   -25.2460 hc         1 XRU       0.038200
     41 H12         -6.3230    -6.7160   -26.3690 hc         1 XRU       0.038200
     42 H13         -6.0060    -3.2310   -28.0310 hc         1 XRU       0.038200
     43 H14         -5.6730    -2.4930   -26.4540 hc         1 XRU       0.038200
     44 H15         -5.0890    -4.1360   -26.8150 hc         1 XRU       0.038200
     45 H16         -7.7610     9.3720   -17.9700 hc         1 XRU       0.038700
     46 H17         -7.9080     7.6130   -17.8770 hc         1 XRU       0.038700
     47 H18         -9.0020     8.5450   -18.9330 hc         1 XRU       0.038700
     48 H19         -9.8260     9.7530   -16.8610 h1         1 XRU       0.027450
     49 H20         -8.9340     8.6110   -15.8580 h1         1 XRU       0.027450
     50 H21        -11.0170     3.3530   -16.2080 hn         1 XRU       0.317500
     51 H22         -8.9890    -0.6000   -15.7030 ha         1 XRU       0.134000
     52 H23         -8.4610    -1.8020   -17.7720 ha         1 XRU       0.155000
     53 H24         -8.8000    -0.1340   -21.1270 hn         1 XRU       0.150000
     54 H25         -8.1110    -1.5140   -25.2800 hc         1 XRU       0.063700
     55 H26         -9.2560    -2.6270   -24.5140 hc         1 XRU       0.063700
     56 H27         -6.1630    -2.6310   -24.1150 h1         1 XRU       0.031700
     57 H29         -8.0480    -3.3190   -26.6780 h1         1 XRU       0.041950
     58 H30         -7.4740    -4.9260   -27.0020 h1         1 XRU       0.041950
     59 H31         -8.3010    -4.2730   -22.5620 h1         1 XRU       0.066200
     60 H32         -6.6410    -3.8770   -22.0420 h1         1 XRU       0.066200
     61 H33         -9.4930     1.7020   -20.0710 ha         1 XRU       0.125000
     62 H34        -11.2550     8.0510   -14.7990 h1         1 XRU       0.027450
     63 H35        -12.5160     7.4340   -15.8660 h1         1 XRU       0.027450
     64 H36        -13.1620     9.6450   -15.2840 hc         1 XRU       0.038700
     65 H37        -11.5880    10.3330   -15.7000 hc         1 XRU       0.038700
     66 H38        -12.6540     9.7050   -16.9840 hc         1 XRU       0.038700
@<TRIPOS>BOND
     1     1     2 1   
     2     1    13 1   
     3     1    29 1   
     4     2     3 1   
     5     2    31 1   
     6     2    32 1   
     7     3    14 1   
     8     3    33 1   
     9     3    34 1   
    10     4     5 1   
    11     4    14 1   
    12     4    28 2   
    13     5    15 ar  
    14     5    27 ar  
    15     6    18 ar  
    16     6    19 1   
    17     6    27 ar  
    18     7    19 1   
    19     7    20 1   
    20     7    26 2   
    21     8    20 1   
    22     8    21 1   
    23     8    35 1   
    24     8    36 1   
    25     9    10 1   
    26     9    23 1   
    27     9    37 1   
    28     9    38 1   
    29    10    39 1   
    30    10    40 1   
    31    10    41 1   
    32    11    24 1   
    33    11    42 1   
    34    11    43 1   
    35    11    44 1   
    36    12    13 1   
    37    12    45 1   
    38    12    46 1   
    39    12    47 1   
    40    13    48 1   
    41    13    49 1   
    42    14    50 1   
    43    15    16 1   
    44    15    17 ar  
    45    17    18 ar  
    46    17    51 1   
    47    18    52 1   
    48    19    53 1   
    49    20    25 1   
    50    21    22 1   
    51    21    54 1   
    52    21    55 1   
    53    22    23 1   
    54    22    25 1   
    55    22    56 1   
    56    23    24 1   
    57    24    57 1   
    58    24    58 1   
    59    25    59 1   
    60    25    60 1   
    61    27    61 1   
    62    29    30 1   
    63    29    62 1   
    64    29    63 1   
    65    30    64 1   
    66    30    65 1   
    67    30    66 1   
@<TRIPOS>SUBSTRUCTURE
     1 XRU         1 TEMP              0 ****  ****    0 ROOT
