@<TRIPOS>MOLECULE
XRU
   66    67     1     0     0
SMALL
abcg2


@<TRIPOS>ATOM
      1 N3         -10.6430     7.7000   -16.5090 n3         1 XRU      -0.731600
      2 C4         -10.2710     6.2900   -16.5880 c3         1 XRU       0.142800
      3 C5         -10.7230     5.6630   -17.9080 c3         1 XRU       0.103000
      4 C7          -9.2150     3.7730   -18.3690 c          1 XRU       0.610700
      5 C8          -9.0360     2.2840   -18.2520 ca         1 XRU      -0.108600
      6 C13         -8.6880     0.1650   -19.3970 ca         1 XRU       0.000000
      7 C15         -8.0140    -1.7300   -20.8670 c          1 XRU       0.668100
      8 C17         -8.7910    -1.4680   -23.2490 c5         1 XRU       0.102000
      9 C21         -6.1940    -5.3000   -24.4510 c3         1 XRU       0.166300
     10 C22         -6.1450    -6.7360   -24.9540 c3         1 XRU      -0.109100
     11 C24         -6.8220    -3.8100   -27.0870 c3         1 XRU      -0.109100
     12 C1          -8.3890     8.7600   -16.4120 c3         1 XRU      -0.090100
     13 C2          -9.7000     8.4700   -15.6920 c3         1 XRU       0.170300
     14 N6         -10.4060     4.2440   -17.9690 ns         1 XRU      -0.495900
     15 C9          -8.9620     1.6200   -17.0290 ca         1 XRU       0.109000
     16 CL10        -9.0720     2.5010   -15.5170 cl         1 XRU      -0.209000
     17 C11         -8.7570     0.2480   -16.9860 ca         1 XRU      -0.079000
     18 C12         -8.6320    -0.4830   -18.1580 ca         1 XRU      -0.110000
     19 N14         -8.6000    -0.4990   -20.6220 ns         1 XRU      -0.164000
     20 N16         -8.0950    -2.1470   -22.1500 n          1 XRU      -0.437800
     21 C18         -8.7850    -2.5110   -24.3620 c5         1 XRU      -0.091400
     22 C19         -7.4900    -3.2940   -24.1170 c5         1 XRU       0.164500
     23 N20         -7.4570    -4.6110   -24.7460 n3         1 XRU      -0.722600
     24 C23         -7.7860    -4.5780   -26.1780 c3         1 XRU       0.166300
     25 C25         -7.4320    -3.3740   -22.5840 c5         1 XRU       0.115000
     26 O26         -7.4590    -2.3960   -19.9870 o          1 XRU      -0.629100
     27 C27         -8.8840     1.5480   -19.4220 ca         1 XRU      -0.131000
     28 O28         -8.3200     4.4780   -18.8370 o          1 XRU      -0.591100
     29 C29        -12.0270     7.8640   -16.0510 c3         1 XRU       0.170300
     30 C30        -12.6460     9.1900   -16.4720 c3         1 XRU      -0.090100
     31 H2         -10.6870     5.7150   -15.7460 h1         1 XRU       0.041700
     32 H3          -9.1880     6.1990   -16.5260 h1         1 XRU       0.041700
     33 H4         -10.2270     6.1660   -18.7370 h1         1 XRU       0.063200
     34 H5         -11.7990     5.7680   -18.0420 h1         1 XRU       0.063200
     35 H6          -8.2510    -0.5640   -23.5500 h1         1 XRU       0.044700
     36 H7          -9.8040    -1.1840   -22.9580 h1         1 XRU       0.044700
     37 H8          -6.0770    -5.3120   -23.3680 h1         1 XRU       0.041950
     38 H9          -5.3310    -4.7410   -24.8480 h1         1 XRU       0.041950
     39 H10         -5.2560    -7.2290   -24.5560 hc         1 XRU       0.038200
     40 H11         -7.0240    -7.2920   -24.6200 hc         1 XRU       0.038200
     41 H12         -6.0950    -6.7950   -26.0420 hc         1 XRU       0.038200
     42 H13         -7.1720    -3.8680   -28.1200 hc         1 XRU       0.038200
     43 H14         -6.7630    -2.7540   -26.8150 hc         1 XRU       0.038200
     44 H15         -5.8130    -4.2250   -27.0530 hc         1 XRU       0.038200
     45 H16         -7.7270     9.3430   -15.7680 hc         1 XRU       0.038700
     46 H17         -7.8620     7.8450   -16.6860 hc         1 XRU       0.038700
     47 H18         -8.5750     9.3310   -17.3240 hc         1 XRU       0.038700
     48 H19        -10.1740     9.4180   -15.4370 h1         1 XRU       0.027450
     49 H20         -9.5010     7.9540   -14.7370 h1         1 XRU       0.027450
     50 H21        -11.0670     3.5920   -17.5770 hn         1 XRU       0.317500
     51 H22         -8.6980    -0.2550   -16.0310 ha         1 XRU       0.134000
     52 H23         -8.4840    -1.5490   -18.1120 ha         1 XRU       0.155000
     53 H24         -8.8500     0.0570   -21.4250 hn         1 XRU       0.150000
     54 H25         -8.8340    -2.0490   -25.3460 hc         1 XRU       0.063700
     55 H26         -9.6380    -3.1850   -24.2510 hc         1 XRU       0.063700
     56 H27         -6.6440    -2.6700   -24.4500 h1         1 XRU       0.031700
     57 H29         -8.7870    -4.1590   -26.2790 h1         1 XRU       0.041950
     58 H30         -7.8580    -5.6100   -26.5210 h1         1 XRU       0.041950
     59 H31         -7.9730    -4.2600   -22.2330 h1         1 XRU       0.066200
     60 H32         -6.4180    -3.4130   -22.1910 h1         1 XRU       0.066200
     61 H33         -8.9240     2.0640   -20.3740 ha         1 XRU       0.125000
     62 H34        -12.0870     7.7500   -14.9550 h1         1 XRU       0.027450
     63 H35        -12.6200     7.0530   -16.4760 h1         1 XRU       0.027450
     64 H36        -13.6780     9.2510   -16.1210 hc         1 XRU       0.038700
     65 H37        -12.1060    10.0440   -16.0580 hc         1 XRU       0.038700
     66 H38        -12.6450     9.2820   -17.5600 hc         1 XRU       0.038700
@<TRIPOS>BOND
     1     1     2 1   
     2     1    13 1   
     3     1    29 1   
     4     2     3 1   
     5     2    31 1   
     6     2    32 1   
     7     3    14 1   
     8     3    33 1   
     9     3    34 1   
    10     4     5 1   
    11     4    14 1   
    12     4    28 2   
    13     5    15 ar  
    14     5    27 ar  
    15     6    18 ar  
    16     6    19 1   
    17     6    27 ar  
    18     7    19 1   
    19     7    20 1   
    20     7    26 2   
    21     8    20 1   
    22     8    21 1   
    23     8    35 1   
    24     8    36 1   
    25     9    10 1   
    26     9    23 1   
    27     9    37 1   
    28     9    38 1   
    29    10    39 1   
    30    10    40 1   
    31    10    41 1   
    32    11    24 1   
    33    11    42 1   
    34    11    43 1   
    35    11    44 1   
    36    12    13 1   
    37    12    45 1   
    38    12    46 1   
    39    12    47 1   
    40    13    48 1   
    41    13    49 1   
    42    14    50 1   
    43    15    16 1   
    44    15    17 ar  
    45    17    18 ar  
    46    17    51 1   
    47    18    52 1   
    48    19    53 1   
    49    20    25 1   
    50    21    22 1   
    51    21    54 1   
    52    21    55 1   
    53    22    23 1   
    54    22    25 1   
    55    22    56 1   
    56    23    24 1   
    57    24    57 1   
    58    24    58 1   
    59    25    59 1   
    60    25    60 1   
    61    27    61 1   
    62    29    30 1   
    63    29    62 1   
    64    29    63 1   
    65    30    64 1   
    66    30    65 1   
    67    30    66 1   
@<TRIPOS>SUBSTRUCTURE
     1 XRU         1 TEMP              0 ****  ****    0 ROOT
