@<TRIPOS>MOLECULE
XRV
   35    38     1     0     0
SMALL
abcg2


@<TRIPOS>ATOM
      1 C13         -2.4070    25.4080   -26.6780 ca         1 XRV       0.171000
      2 C15         -2.3260    23.0310   -26.5230 ca         1 XRV      -0.085000
      3 C11         -3.2150    24.3390   -24.7060 ca         1 XRV      -0.085000
      4 C12         -2.9800    25.5020   -25.4250 ca         1 XRV      -0.138500
      5 F           -2.1640    26.5290   -27.3730 f          1 XRV      -0.172000
      6 C14         -2.0740    24.1900   -27.2380 ca         1 XRV      -0.138500
      7 C10         -2.8940    23.1030   -25.2560 ca         1 XRV      -0.001200
      8 N3          -3.1370    21.9180   -24.5350 na         1 XRV       0.231000
      9 N2          -2.3730    20.8430   -24.7340 nc         1 XRV      -0.506800
     10 C8          -2.8500    19.9200   -23.9280 cd         1 XRV       0.254900
     11 C9          -4.1020    21.6900   -23.6130 cc         1 XRV      -0.148000
     12 C7          -3.9500    20.3950   -23.1850 cd         1 XRV      -0.207300
     13 C6          -4.7900    19.6630   -22.1850 c3         1 XRV       0.054200
     14 C5          -5.5780    18.5570   -22.8310 ca         1 XRV       0.008700
     15 C1          -6.8350    18.7420   -23.3420 ca         1 XRV      -0.186000
     16 C4          -5.0760    17.2550   -22.9960 ca         1 XRV      -0.179200
     17 N4          -3.9400    16.5980   -22.6680 na         1 XRV      -0.051400
     18 N5          -3.9960    15.3420   -23.0670 nc         1 XRV      -0.156400
     19 N6          -5.1210    15.1260   -23.6510 nd         1 XRV      -0.300000
     20 C3          -5.8370    16.2820   -23.6350 ca         1 XRV       0.463000
     21 N1          -7.0620    16.4630   -24.1340 nb         1 XRV      -0.682000
     22 C2          -7.5490    17.6800   -23.9870 ca         1 XRV       0.597900
     23 N7          -8.7750    17.9450   -24.5110 nv         1 XRV      -1.061900
     24 H1          -2.0810    22.0720   -26.9560 ha         1 XRV       0.136000
     25 H2          -3.6340    24.4130   -23.7110 ha         1 XRV       0.136000
     26 H3          -3.2250    26.4660   -25.0010 ha         1 XRV       0.138500
     27 H4          -1.6320    24.1410   -28.2240 ha         1 XRV       0.138500
     28 H5          -2.3930    18.9420   -23.8950 h4         1 XRV       0.038100
     29 H6          -4.8300    22.4370   -23.3420 h4         1 XRV       0.157000
     30 H7          -4.1600    19.2510   -21.3920 hc         1 XRV       0.056700
     31 H8          -5.4770    20.3610   -21.7060 hc         1 XRV       0.056700
     32 H9          -7.3060    19.7140   -23.2620 ha         1 XRV       0.122000
     33 H10         -3.1190    16.9310   -22.1820 hn         1 XRV       0.382000
     34 H11         -9.3520    17.1540   -24.7450 hn         1 XRV       0.477500
     35 H12         -9.2790    18.7470   -24.1710 hn         1 XRV       0.477500
@<TRIPOS>BOND
     1     1     4 ar  
     2     1     5 1   
     3     1     6 ar  
     4     2     6 ar  
     5     2     7 ar  
     6     2    24 1   
     7     3     4 ar  
     8     3     7 ar  
     9     3    25 1   
    10     4    26 1   
    11     6    27 1   
    12     7     8 1   
    13     8     9 1   
    14     8    11 1   
    15     9    10 2   
    16    10    12 1   
    17    10    28 1   
    18    11    12 2   
    19    11    29 1   
    20    12    13 1   
    21    13    14 1   
    22    13    30 1   
    23    13    31 1   
    24    14    15 ar  
    25    14    16 ar  
    26    15    22 ar  
    27    15    32 1   
    28    16    17 1   
    29    16    20 ar  
    30    17    18 1   
    31    17    33 1   
    32    18    19 2   
    33    19    20 1   
    34    20    21 ar  
    35    21    22 ar  
    36    22    23 1   
    37    23    34 1   
    38    23    35 1   
@<TRIPOS>SUBSTRUCTURE
     1 XRV         1 TEMP              0 ****  ****    0 ROOT
