@<TRIPOS>MOLECULE
XRV
   35    38     1     0     0
SMALL
No Charge or Current Charge


@<TRIPOS>ATOM
      1 C13         -0.8810    25.0460   -25.7990 ca         1 XRV       0.171000
      2 C15         -2.8520    23.8370   -26.5520 ca         1 XRV      -0.085000
      3 C11         -1.8810    23.3490   -24.3710 ca         1 XRV      -0.085000
      4 C12         -0.8880    24.3200   -24.5990 ca         1 XRV      -0.138500
      5 F            0.0730    25.9780   -26.0150 f          1 XRV      -0.172000
      6 C14         -1.8580    24.8080   -26.7760 ca         1 XRV      -0.138500
      7 C10         -2.8720    23.1000   -25.3470 ca         1 XRV      -0.001200
      8 N3          -3.8620    22.1360   -25.1210 na         1 XRV       0.231000
      9 N2          -4.2150    21.2570   -26.1170 nc         1 XRV      -0.506800
     10 C8          -5.1150    20.5170   -25.4970 cd         1 XRV       0.254900
     11 C9          -4.4960    21.9590   -23.9000 cc         1 XRV      -0.148000
     12 C7          -5.3260    20.8970   -24.1450 cd         1 XRV      -0.207300
     13 C6          -6.2820    20.2410   -23.1820 c3         1 XRV       0.054200
     14 C5          -6.2160    18.7190   -23.2090 ca         1 XRV       0.008700
     15 C1          -7.3310    17.9210   -23.5280 ca         1 XRV      -0.186000
     16 C4          -5.0410    18.0060   -22.9290 ca         1 XRV      -0.179200
     17 N4          -3.7930    18.4550   -22.5950 na         1 XRV      -0.051400
     18 N5          -2.9700    17.3550   -22.4200 nc         1 XRV      -0.156400
     19 N6          -3.6910    16.2540   -22.6400 nd         1 XRV      -0.300000
     20 C3          -4.9870    16.6420   -22.9610 ca         1 XRV       0.463000
     21 N1          -6.0490    15.8710   -23.2610 nb         1 XRV      -0.682000
     22 C2          -7.1770    16.5230   -23.5350 ca         1 XRV       0.597900
     23 N7          -8.1750    15.6760   -23.8180 nv         1 XRV      -1.061900
     24 H1          -3.6090    23.6610   -27.3140 ha         1 XRV       0.136000
     25 H2          -1.8720    22.7860   -23.4400 ha         1 XRV       0.136000
     26 H3          -0.1250    24.5090   -23.8480 ha         1 XRV       0.138500
     27 H4          -1.8460    25.3750   -27.7040 ha         1 XRV       0.138500
     28 H5          -5.5970    19.7120   -26.0390 h4         1 XRV       0.038100
     29 H6          -4.3190    22.5710   -23.0250 h4         1 XRV       0.157000
     30 H7          -6.0780    20.5900   -22.1620 hc         1 XRV       0.056700
     31 H8          -7.3020    20.5750   -23.4070 hc         1 XRV       0.056700
     32 H9          -8.2910    18.3700   -23.7650 ha         1 XRV       0.122000
     33 H10         -3.4640    19.4110   -22.4880 hn         1 XRV       0.382000
     34 H11         -8.0050    14.7090   -23.5650 hn         1 XRV       0.477500
     35 H12         -9.1270    16.0110   -23.7130 hn         1 XRV       0.477500
@<TRIPOS>BOND
     1     1     4 ar  
     2     1     5 1   
     3     1     6 ar  
     4     2     6 ar  
     5     2     7 ar  
     6     2    24 1   
     7     3     4 ar  
     8     3     7 ar  
     9     3    25 1   
    10     4    26 1   
    11     6    27 1   
    12     7     8 1   
    13     8     9 1   
    14     8    11 1   
    15     9    10 2   
    16    10    12 1   
    17    10    28 1   
    18    11    12 2   
    19    11    29 1   
    20    12    13 1   
    21    13    14 1   
    22    13    30 1   
    23    13    31 1   
    24    14    15 ar  
    25    14    16 ar  
    26    15    22 ar  
    27    15    32 1   
    28    16    17 1   
    29    16    20 ar  
    30    17    18 1   
    31    17    33 1   
    32    18    19 2   
    33    19    20 1   
    34    20    21 ar  
    35    21    22 ar  
    36    22    23 1   
    37    23    34 1   
    38    23    35 1   
@<TRIPOS>SUBSTRUCTURE
     1 XRV         1 TEMP              0 ****  ****    0 ROOT
