@<TRIPOS>MOLECULE
XRX
   33    32     1     0     0
SMALL
abcg2


@<TRIPOS>ATOM
      1 N1          -2.9560    -0.6340    -0.2860 n3         1 XRX      -0.729600
      2 C2          -0.1260    -0.2280     0.1990 c3         1 XRX       0.191600
      3 O3           1.1870     0.3320     0.0830 os         1 XRX      -0.469100
      4 C4          -3.1890    -0.2720    -1.6670 c3         1 XRX       0.156600
      5 N5           3.4080     0.1070    -0.0110 n          1 XRX      -0.408800
      6 O6           2.0860    -1.7210     0.2190 o          1 XRX      -0.546000
      7 C7          -2.5230     0.4690     0.5660 c3         1 XRX       0.186500
      8 C8          -1.1070     0.9240     0.2140 c3         1 XRX      -0.078400
      9 C9           2.2170    -0.5160     0.0990 c          1 XRX       0.646100
     10 C10         -4.0790    -1.3590     0.2640 c3         1 XRX       0.156600
     11 C11         -3.4710     1.6710     0.6060 c3         1 XRX      -0.122100
     12 C12          4.6180    -0.6860    -0.0040 c3         1 XRX       0.099800
     13 C13          3.5820     1.5160    -0.2960 c3         1 XRX       0.099800
     14 H41C        -2.3020     0.1850    -2.1070 h1         1 XRX       0.029700
     15 H42C        -3.4050    -1.1720    -2.2450 h1         1 XRX       0.029700
     16 H43C        -4.0290     0.4210    -1.8130 h1         1 XRX       0.029700
     17 H7          -2.4760     0.0530     1.5800 h1         1 XRX       0.054700
     18 H101        -4.2730    -2.2510    -0.3360 h1         1 XRX       0.029700
     19 H102        -3.8520    -1.6900     1.2790 h1         1 XRX       0.029700
     20 H103        -5.0170    -0.7840     0.3010 h1         1 XRX       0.029700
     21 H21C        -0.3180    -0.9040    -0.6350 h1         1 XRX       0.058200
     22 H22C        -0.2070    -0.8070     1.1220 h1         1 XRX       0.058200
     23 H81C        -0.7970     1.6560     0.9650 hc         1 XRX       0.050200
     24 H82C        -1.0940     1.4490    -0.7470 hc         1 XRX       0.050200
     25 H121         4.9070    -1.0000    -1.0100 h1         1 XRX       0.041367
     26 H122         5.4290    -0.0870     0.4090 h1         1 XRX       0.041367
     27 H123         4.5040    -1.5700     0.6170 h1         1 XRX       0.041367
     28 H131         2.6310     2.0260    -0.4040 h1         1 XRX       0.041367
     29 H132         4.1430     2.0010     0.5050 h1         1 XRX       0.041367
     30 H133         4.1420     1.6440    -1.2250 h1         1 XRX       0.041367
     31 H111        -4.4960     1.3710     0.8310 hc         1 XRX       0.038700
     32 H112        -3.1600     2.3720     1.3820 hc         1 XRX       0.038700
     33 H113        -3.4800     2.2140    -0.3400 hc         1 XRX       0.038700
@<TRIPOS>BOND
     1     1     4 1   
     2     1     7 1   
     3     1    10 1   
     4     2     3 1   
     5     2     8 1   
     6     2    21 1   
     7     2    22 1   
     8     3     9 1   
     9     4    14 1   
    10     4    15 1   
    11     4    16 1   
    12     5     9 1   
    13     5    12 1   
    14     5    13 1   
    15     6     9 2   
    16     7     8 1   
    17     7    11 1   
    18     7    17 1   
    19     8    23 1   
    20     8    24 1   
    21    10    18 1   
    22    10    19 1   
    23    10    20 1   
    24    11    31 1   
    25    11    32 1   
    26    11    33 1   
    27    12    25 1   
    28    12    26 1   
    29    12    27 1   
    30    13    28 1   
    31    13    29 1   
    32    13    30 1   
@<TRIPOS>SUBSTRUCTURE
     1 XRX         1 TEMP              0 ****  ****    0 ROOT
