@<TRIPOS>MOLECULE
XRX
   33    32     1     0     0
SMALL
No Charge or Current Charge


@<TRIPOS>ATOM
      1 N1          -3.0360    -0.6420    -0.2740 n3         1 XRX      -0.729600
      2 C2          -0.0950    -0.2720     0.3260 c3         1 XRX       0.191600
      3 O3           1.2150     0.2840     0.1230 os         1 XRX      -0.469100
      4 C4          -3.1240    -0.2980    -1.7160 c3         1 XRX       0.156600
      5 N5           3.4980     0.0910    -0.1140 n          1 XRX      -0.408800
      6 O6           2.1880    -1.7890     0.2340 o          1 XRX      -0.546000
      7 C7          -2.5570     0.4550     0.6190 c3         1 XRX       0.186500
      8 C8          -1.1010     0.8960     0.3190 c3         1 XRX      -0.078400
      9 C9           2.2780    -0.5770     0.0940 c          1 XRX       0.646100
     10 C10         -4.2600    -1.3200     0.2140 c3         1 XRX       0.156600
     11 C11         -3.5010     1.6820     0.6610 c3         1 XRX      -0.122100
     12 C12          4.7610    -0.6750    -0.1740 c3         1 XRX       0.099800
     13 C13          3.5570     1.5620    -0.2870 c3         1 XRX       0.099800
     14 H41C        -2.1670     0.0790    -2.0970 h1         1 XRX       0.029700
     15 H42C        -3.3840    -1.1860    -2.3060 h1         1 XRX       0.029700
     16 H43C        -3.8940     0.4640    -1.8960 h1         1 XRX       0.029700
     17 H7          -2.5350     0.0570     1.6440 h1         1 XRX       0.054700
     18 H101        -4.4600    -2.2250    -0.3750 h1         1 XRX       0.029700
     19 H102        -4.1470    -1.6210     1.2640 h1         1 XRX       0.029700
     20 H103        -5.1370    -0.6640     0.1350 h1         1 XRX       0.029700
     21 H21C        -0.3450    -0.9830    -0.4730 h1         1 XRX       0.058200
     22 H22C        -0.1510    -0.7980     1.2890 h1         1 XRX       0.058200
     23 H81C        -0.7920     1.6240     1.0780 hc         1 XRX       0.050200
     24 H82C        -1.0530     1.4110    -0.6470 hc         1 XRX       0.050200
     25 H121         4.7490    -1.3350    -1.0510 h1         1 XRX       0.041367
     26 H122         5.6250    -0.0020    -0.2470 h1         1 XRX       0.041367
     27 H123         4.8670    -1.2850     0.7320 h1         1 XRX       0.041367
     28 H131         2.9420     1.8580    -1.1460 h1         1 XRX       0.041367
     29 H132         3.1770     2.0560     0.6160 h1         1 XRX       0.041367
     30 H133         4.5880     1.8940    -0.4630 h1         1 XRX       0.041367
     31 H111        -4.5160     1.3950     0.9570 hc         1 XRX       0.038700
     32 H112        -3.1410     2.4150     1.3920 hc         1 XRX       0.038700
     33 H113        -3.5520     2.1790    -0.3150 hc         1 XRX       0.038700
@<TRIPOS>BOND
     1     1     4 1   
     2     1     7 1   
     3     1    10 1   
     4     2     3 1   
     5     2     8 1   
     6     2    21 1   
     7     2    22 1   
     8     3     9 1   
     9     4    14 1   
    10     4    15 1   
    11     4    16 1   
    12     5     9 1   
    13     5    12 1   
    14     5    13 1   
    15     6     9 2   
    16     7     8 1   
    17     7    11 1   
    18     7    17 1   
    19     8    23 1   
    20     8    24 1   
    21    10    18 1   
    22    10    19 1   
    23    10    20 1   
    24    11    31 1   
    25    11    32 1   
    26    11    33 1   
    27    12    25 1   
    28    12    26 1   
    29    12    27 1   
    30    13    28 1   
    31    13    29 1   
    32    13    30 1   
@<TRIPOS>SUBSTRUCTURE
     1 XRX         1 TEMP              0 ****  ****    0 ROOT
