@<TRIPOS>MOLECULE
XS0
   48    51     1     0     0
SMALL
abcg2


@<TRIPOS>ATOM
      1 N12        125.0310    98.7830    81.6000 nc         1 XS0      -0.557100
      2 C13        124.6150    97.5750    81.1120 ca         1 XS0      -0.095600
      3 C21        126.6470    96.1630    78.2960 c3         1 XS0       0.282100
      4 C22        127.2950    94.8990    78.8100 ca         1 XS0      -0.100300
      5 C24        127.6520    92.5300    78.6280 ca         1 XS0       0.198000
      6 C26        128.7960    93.7660    80.3170 ca         1 XS0      -0.114000
      7 CL19       122.5800    93.8190    80.2150 cl         1 XS0      -0.135000
      8 C01        122.8900   102.7620    87.2250 c3         1 XS0       0.094300
      9 C03        122.6800   100.9060    85.6590 c          1 XS0       0.599100
     10 O04        123.4940   101.3730    84.8750 o          1 XS0      -0.596100
     11 C05        122.0370    99.5450    85.4350 c5         1 XS0       0.079300
     12 C06        122.9680    98.3990    85.8470 c5         1 XS0       0.095300
     13 C07        122.4710    97.2750    84.9300 c5         1 XS0       0.101300
     14 C08        122.1210    98.0540    83.6620 c5         1 XS0       0.319300
     15 O09        121.7990    99.3550    84.0570 os         1 XS0      -0.415000
     16 N10        123.2240    98.0990    82.7130 na         1 XS0      -0.305300
     17 C11        124.1840    99.0620    82.5490 cd         1 XS0       0.422700
     18 C14        125.0850    96.7330    80.0860 ca         1 XS0       0.455900
     19 N15        124.4200    95.5940    79.8560 nb         1 XS0      -0.281000
     20 C16        123.3650    95.3200    80.5980 ca         1 XS0       0.280000
     21 N17        122.8230    96.0000    81.5760 nb         1 XS0      -0.206000
     22 C18        123.4920    97.1350    81.7920 ca         1 XS0       0.122500
     23 N20        126.1490    97.0260    79.3380 nu         1 XS0      -0.910100
     24 C23        127.0270    93.6860    78.1840 ca         1 XS0      -0.056000
     25 C25        128.5380    92.5510    79.6930 ca         1 XS0      -0.077000
     26 C27        128.1840    94.9300    79.8800 ca         1 XS0      -0.086000
     27 O29        121.2850    96.7160    85.4200 oh         1 XS0      -0.700000
     28 O30        122.8240    98.1300    87.2090 oh         1 XS0      -0.712000
     29 I28        127.2260    90.7010    77.6750 i          1 XS0      -0.316000
     30 H1         127.3760    96.7430    77.7300 h1         1 XS0       0.063200
     31 H2         125.8430    95.9090    77.6030 h1         1 XS0       0.063200
     32 H3         129.4860    93.7970    81.1500 ha         1 XS0       0.116000
     33 H4         123.9740   102.7000    87.3140 h1         1 XS0       0.044367
     34 H5         122.6470   103.5680    86.5320 h1         1 XS0       0.044367
     35 H6         122.4790   103.0100    88.1980 h1         1 XS0       0.044367
     36 H7         121.6140   101.0820    87.3740 hn         1 XS0       0.324500
     37 H8         121.0950    99.4690    85.9930 h1         1 XS0       0.082700
     38 H9         124.0040    98.6460    85.5870 h1         1 XS0       0.071700
     39 H10        123.2390    96.5150    84.7420 h1         1 XS0       0.080700
     40 H11        121.2780    97.5930    83.1390 h2         1 XS0       0.131700
     41 H12        124.2000    99.9550    83.1560 h5         1 XS0       0.101800
     42 H13        126.6430    97.8810    79.5370 hn         1 XS0       0.519000
     43 H14        126.3280    93.6550    77.3570 ha         1 XS0       0.130000
     44 H15        129.0210    91.6480    80.0430 ha         1 XS0       0.127000
     45 H16        128.3980    95.8670    80.3790 ha         1 XS0       0.114000
     46 H17        121.3670    96.6380    86.3790 ho         1 XS0       0.525000
     47 H18        123.6200    97.6940    87.5310 ho         1 XS0       0.525000
     48 N02        122.3230   101.5040    86.7970 ns         1 XS0      -0.494900
@<TRIPOS>BOND
     1     1     2 1   
     2     1    17 2   
     3     2    18 ar  
     4     2    22 ar  
     5     3     4 1   
     6     3    23 1   
     7     3    30 1   
     8     3    31 1   
     9     4    24 ar  
    10     4    26 ar  
    11     5    24 ar  
    12     5    25 ar  
    13     5    29 1   
    14     6    25 ar  
    15     6    26 ar  
    16     6    32 1   
    17     7    20 1   
    18     8    33 1   
    19     8    34 1   
    20     8    35 1   
    21     8    48 1   
    22     9    10 2   
    23     9    11 1   
    24     9    48 1   
    25    11    12 1   
    26    11    15 1   
    27    11    37 1   
    28    12    13 1   
    29    12    28 1   
    30    12    38 1   
    31    13    14 1   
    32    13    27 1   
    33    13    39 1   
    34    14    15 1   
    35    14    16 1   
    36    14    40 1   
    37    16    17 1   
    38    16    22 1   
    39    17    41 1   
    40    18    19 ar  
    41    18    23 1   
    42    19    20 ar  
    43    20    21 ar  
    44    21    22 ar  
    45    23    42 1   
    46    24    43 1   
    47    25    44 1   
    48    26    45 1   
    49    27    46 1   
    50    28    47 1   
    51    36    48 1   
@<TRIPOS>SUBSTRUCTURE
     1 XS0         1 TEMP              0 ****  ****    0 ROOT
