@<TRIPOS>MOLECULE
XS0
   48    51     1     0     0
SMALL
No Charge or Current Charge


@<TRIPOS>ATOM
      1 N12        124.2370    98.9740    80.7380 nc         1 XS0      -0.557100
      2 C13        123.8980    97.6360    80.5830 ca         1 XS0      -0.095600
      3 C21        126.5100    96.0720    78.3110 c3         1 XS0       0.282100
      4 C22        127.3260    95.4080    79.4140 ca         1 XS0      -0.100300
      5 C24        127.7700    93.4890    80.8550 ca         1 XS0       0.198000
      6 C26        129.1200    95.5000    81.0710 ca         1 XS0      -0.114000
      7 Cl19       122.3570    93.4970    80.5200 cl         1 XS0      -0.135000
      8 C01        125.2370   100.7000    87.0930 c3         1 XS0       0.094300
      9 C03        123.5370   100.2760    85.2890 c          1 XS0       0.599100
     10 O04        124.1100   100.9780    84.4640 o          1 XS0      -0.596100
     11 C05        122.1960    99.4970    85.1160 c5         1 XS0       0.079300
     12 C06        122.4640    97.9570    85.1770 c5         1 XS0       0.095300
     13 C07        121.3430    97.4200    84.2460 c5         1 XS0       0.101300
     14 C08        121.4100    98.4970    83.1100 c5         1 XS0       0.319300
     15 O09        121.5670    99.7500    83.8210 os         1 XS0      -0.415000
     16 N10        122.5010    98.3600    82.1360 na         1 XS0      -0.305300
     17 C11        123.3590    99.3790    81.6750 cd         1 XS0       0.422700
     18 C14        124.4630    96.6710    79.7220 ca         1 XS0       0.455900
     19 N15        123.9950    95.4090    79.6980 nb         1 XS0      -0.281000
     20 C16        122.9720    95.1410    80.5370 ca         1 XS0       0.280000
     21 N17        122.3750    96.0030    81.3920 nb         1 XS0      -0.206000
     22 C18        122.8630    97.2580    81.4000 ca         1 XS0       0.122500
     23 N20        125.5240    96.9990    78.8870 nu         1 XS0      -0.910100
     24 C23        127.0300    94.0920    79.8260 ca         1 XS0      -0.056000
     25 C25        128.8160    94.1890    81.4780 ca         1 XS0      -0.077000
     26 C27        128.3770    96.1070    80.0430 ca         1 XS0      -0.086000
     27 O29        120.0860    97.3980    84.9470 oh         1 XS0      -0.700000
     28 O30        122.3410    97.4240    86.5070 oh         1 XS0      -0.712000
     29 I28        127.2920    91.4730    81.4880 i          1 XS0      -0.316000
     30 H1         127.1910    96.6150    77.6400 h1         1 XS0       0.063200
     31 H2         126.0050    95.3050    77.7060 h1         1 XS0       0.063200
     32 H3         129.9290    96.0450    81.5530 ha         1 XS0       0.116000
     33 H4         126.0940   100.3630    86.4960 h1         1 XS0       0.044367
     34 H5         125.1640   101.7940    87.0410 h1         1 XS0       0.044367
     35 H6         125.3820   100.3960    88.1380 h1         1 XS0       0.044367
     36 H7         123.4760    99.4730    87.1720 hn         1 XS0       0.324500
     37 H8         121.5040    99.8160    85.9060 h1         1 XS0       0.082700
     38 H9         123.4540    97.7250    84.7540 h1         1 XS0       0.071700
     39 H10        121.5850    96.4170    83.8700 h1         1 XS0       0.080700
     40 H11        120.4820    98.5000    82.5230 h2         1 XS0       0.131700
     41 H12        123.2810   100.3910    82.0560 h5         1 XS0       0.101800
     42 H13        125.8180    97.9700    79.0020 hn         1 XS0       0.519000
     43 H14        126.2230    93.5370    79.3560 ha         1 XS0       0.130000
     44 H15        129.3850    93.7170    82.2740 ha         1 XS0       0.127000
     45 H16        128.6140    97.1240    79.7370 ha         1 XS0       0.114000
     46 H17        120.3480    97.3680    85.9010 ho         1 XS0       0.525000
     47 H18        122.8180    96.5570    86.5320 ho         1 XS0       0.525000
     48 N02        124.0070   100.0980    86.5730 ns         1 XS0      -0.494900
@<TRIPOS>BOND
     1     1     2 1   
     2     1    17 2   
     3     2    18 ar  
     4     2    22 ar  
     5     3     4 1   
     6     3    23 1   
     7     3    30 1   
     8     3    31 1   
     9     4    24 ar  
    10     4    26 ar  
    11     5    24 ar  
    12     5    25 ar  
    13     5    29 1   
    14     6    25 ar  
    15     6    26 ar  
    16     6    32 1   
    17     7    20 1   
    18     8    33 1   
    19     8    34 1   
    20     8    35 1   
    21     8    48 1   
    22     9    10 2   
    23     9    11 1   
    24     9    48 1   
    25    11    12 1   
    26    11    15 1   
    27    11    37 1   
    28    12    13 1   
    29    12    28 1   
    30    12    38 1   
    31    13    14 1   
    32    13    27 1   
    33    13    39 1   
    34    14    15 1   
    35    14    16 1   
    36    14    40 1   
    37    16    17 1   
    38    16    22 1   
    39    17    41 1   
    40    18    19 ar  
    41    18    23 1   
    42    19    20 ar  
    43    20    21 ar  
    44    21    22 ar  
    45    23    42 1   
    46    24    43 1   
    47    25    44 1   
    48    26    45 1   
    49    27    46 1   
    50    28    47 1   
    51    36    48 1   
@<TRIPOS>SUBSTRUCTURE
     1 XS0         1 TEMP              0 ****  ****    0 ROOT
