@<TRIPOS>MOLECULE
XS1
   71    77     1     0     0
SMALL
No Charge or Current Charge


@<TRIPOS>ATOM
      1 C13        163.4440    52.6670    41.9740 cc         1 XS1      -0.210300
      2 C18        161.0140    57.3010    40.3360 ca         1 XS1      -0.145000
      3 C17        160.1590    58.0800    41.1330 ca         1 XS1      -0.075000
      4 C16        160.3450    58.1260    42.5240 ca         1 XS1      -0.141000
      5 C15        161.3840    57.4050    43.1320 ca         1 XS1       0.150100
      6 C19        162.0730    56.5810    40.9210 ca         1 XS1      -0.077300
      7 C20        162.2730    56.6640    42.3160 ca         1 XS1      -0.185000
      8 C21        161.1830    55.0460    44.8490 c5         1 XS1      -0.154400
      9 C22        162.3590    54.9740    47.0470 c5         1 XS1      -0.079400
     10 C23        161.9650    56.4350    46.6860 c5         1 XS1      -0.055700
     11 C24        160.6010    56.8890    47.3020 c3         1 XS1      -0.020100
     12 C11        162.5940    53.5600    41.3940 cd         1 XS1      -0.166000
     13 C12        164.7340    53.0580    41.5710 cc         1 XS1       0.263900
     14 C27        160.6790    60.7270    47.4460 ca         1 XS1      -0.111500
     15 C1         162.1750    49.4560    41.7440 ca         1 XS1      -0.252000
     16 C2         162.3640    48.2190    41.1180 ca         1 XS1       0.653900
     17 N1         163.5310    47.6200    40.9330 nb         1 XS1      -0.764000
     18 C3         164.6000    48.2980    41.3930 ca         1 XS1       0.393500
     19 C4         164.5430    49.5170    42.0200 ca         1 XS1      -0.071600
     20 C5         163.3000    50.1550    42.2290 ca         1 XS1       0.088700
     21 C6         163.1210    51.5230    42.9060 c3         1 XS1       0.071900
     22 N3         165.9250    47.9910    41.3620 na         1 XS1      -0.181100
     23 N4         166.6650    49.0050    41.9540 nc         1 XS1      -0.171400
     24 N5         165.8200    49.9440    42.3590 nd         1 XS1      -0.207400
     25 C7         163.8440    51.6560    44.2770 c3         1 XS1      -0.083400
     26 C8         163.4970    52.9440    45.0580 c3         1 XS1       0.158800
     27 N6         162.1290    52.8710    45.6330 n7         1 XS1      -0.864400
     28 C9         161.4540    54.1260    46.0850 c5         1 XS1       0.176500
     29 C10        162.0650    56.3040    45.1310 c5         1 XS1       0.174300
     30 O1         161.4800    57.4870    44.5160 os         1 XS1      -0.331100
     31 N7         163.4180    54.4620    40.7130 na         1 XS1       0.129800
     32 N8         164.7630    54.1360    40.8130 nd         1 XS1      -0.520800
     33 C14        162.9780    55.7050    40.0480 c3         1 XS1       0.127900
     34 C25        160.2420    58.3540    47.0690 ca         1 XS1      -0.062300
     35 C26        161.0090    59.3780    47.6600 ca         1 XS1      -0.102500
     36 C28        159.5760    61.0630    46.6430 ca         1 XS1      -0.113000
     37 C29        158.8030    60.0480    46.0550 ca         1 XS1      -0.111500
     38 C30        159.1330    58.6990    46.2690 ca         1 XS1      -0.102500
     39 H19        160.8490    57.2560    39.2610 ha         1 XS1       0.113000
     40 H18        159.3450    58.6370    40.6740 ha         1 XS1       0.115000
     41 H17        159.6710    58.7160    43.1400 ha         1 XS1       0.132000
     42 H20        163.1150    56.1350    42.7480 ha         1 XS1       0.129000
     43 H21        160.1210    55.3090    44.7940 hc         1 XS1       0.056700
     44 H22        161.4290    54.5700    43.8950 hc         1 XS1       0.056700
     45 H24        162.1700    54.7340    48.0990 hc         1 XS1       0.056700
     46 H23        163.4320    54.8280    46.8880 hc         1 XS1       0.056700
     47 H25        162.7260    57.1300    47.0590 hc         1 XS1       0.067700
     48 H26        159.7840    56.2480    46.9500 hc         1 XS1       0.046200
     49 H27        160.6380    56.7210    48.3850 hc         1 XS1       0.046200
     50 H13        161.5160    53.6610    41.4440 h4         1 XS1       0.152000
     51 H14        165.6740    52.5950    41.8390 h4         1 XS1       0.054100
     52 H1         161.1750    49.8670    41.8450 ha         1 XS1       0.120000
     53 H2         161.6330    46.5190    40.4410 hn         1 XS1       0.489000
     54 H3         160.4500    47.6170    41.0370 hn         1 XS1       0.489000
     55 H4         162.0530    51.6120    43.1370 hc         1 XS1       0.044700
     56 H5         166.3460    47.1580    40.9710 hn         1 XS1       0.387000
     57 H6         163.6190    50.7820    44.9000 hc         1 XS1       0.065200
     58 H7         164.9280    51.6540    44.1210 hc         1 XS1       0.065200
     59 H9         164.2350    53.0640    45.8620 h1         1 XS1       0.041200
     60 H8         163.6060    53.8050    44.3860 h1         1 XS1       0.041200
     61 H33        161.5230    52.4300    44.9330 hn         1 XS1       0.410000
     62 H11        160.5010    53.8830    46.5760 h1         1 XS1       0.059700
     63 H12        163.1130    56.1770    44.8290 h1         1 XS1       0.049700
     64 H16        163.8630    56.2840    39.7580 h1         1 XS1       0.077200
     65 H15        162.4470    55.4250    39.1300 h1         1 XS1       0.077200
     66 H28        161.8630    59.1280    48.2850 ha         1 XS1       0.107000
     67 H30        159.3210    62.1070    46.4770 ha         1 XS1       0.110000
     68 H31        157.9490    60.3060    45.4320 ha         1 XS1       0.109000
     69 H32        158.5310    57.9200    45.8060 ha         1 XS1       0.107000
     70 N2         161.3710    47.4770    40.6370 nv         1 XS1      -1.071900
     71 H29        161.2770    61.5120    47.9040 ha         1 XS1       0.109000
@<TRIPOS>BOND
     1     1    12 2   
     2     1    13 1   
     3     1    21 1   
     4     2     3 ar  
     5     2     6 ar  
     6     2    39 1   
     7     3     4 ar  
     8     3    40 1   
     9     4     5 ar  
    10     4    41 1   
    11     5     7 ar  
    12     5    30 1   
    13     6     7 ar  
    14     6    33 1   
    15     7    42 1   
    16     8    28 1   
    17     8    29 1   
    18     8    43 1   
    19     8    44 1   
    20     9    10 1   
    21     9    28 1   
    22     9    45 1   
    23     9    46 1   
    24    10    11 1   
    25    10    29 1   
    26    10    47 1   
    27    11    34 1   
    28    11    48 1   
    29    11    49 1   
    30    12    31 1   
    31    12    50 1   
    32    13    32 2   
    33    13    51 1   
    34    14    35 ar  
    35    14    36 ar  
    36    14    71 1   
    37    15    16 ar  
    38    15    20 ar  
    39    15    52 1   
    40    16    17 ar  
    41    16    70 1   
    42    17    18 ar  
    43    18    19 ar  
    44    18    22 1   
    45    19    20 ar  
    46    19    24 1   
    47    20    21 1   
    48    21    25 1   
    49    21    55 1   
    50    22    23 1   
    51    22    56 1   
    52    23    24 2   
    53    25    26 1   
    54    25    57 1   
    55    25    58 1   
    56    26    27 1   
    57    26    59 1   
    58    26    60 1   
    59    27    28 1   
    60    27    61 1   
    61    28    62 1   
    62    29    30 1   
    63    29    63 1   
    64    31    32 1   
    65    31    33 1   
    66    33    64 1   
    67    33    65 1   
    68    34    35 ar  
    69    34    38 ar  
    70    35    66 1   
    71    36    37 ar  
    72    36    67 1   
    73    37    38 ar  
    74    37    68 1   
    75    38    69 1   
    76    53    70 1   
    77    54    70 1   
@<TRIPOS>SUBSTRUCTURE
     1 XS1         1 TEMP              0 ****  ****    0 ROOT
