@<TRIPOS>MOLECULE
XS1
   71    77     1     0     0
SMALL
abcg2


@<TRIPOS>ATOM
      1 C13        163.3480    52.6920    42.1280 cc         1 XS1      -0.210300
      2 C18        161.1700    57.5120    40.3210 ca         1 XS1      -0.145000
      3 C17        160.5230    58.4340    41.1340 ca         1 XS1      -0.075000
      4 C16        160.6260    58.3640    42.5140 ca         1 XS1      -0.141000
      5 C15        161.4060    57.3660    43.0950 ca         1 XS1       0.150100
      6 C19        161.9600    56.5250    40.8990 ca         1 XS1      -0.077300
      7 C20        162.0970    56.4720    42.2800 ca         1 XS1      -0.185000
      8 C21        161.1600    54.8950    44.8450 c5         1 XS1      -0.154400
      9 C22        162.2250    54.9120    47.0530 c5         1 XS1      -0.079400
     10 C23        161.9310    56.3480    46.6110 c5         1 XS1      -0.055700
     11 C24        160.5960    56.8500    47.1790 c3         1 XS1      -0.020100
     12 C11        162.4680    53.4160    41.3570 cd         1 XS1      -0.166000
     13 C12        164.5870    53.3250    41.9020 cc         1 XS1       0.263900
     14 C27        160.8680    60.6410    47.2700 ca         1 XS1      -0.111500
     15 C1         162.2730    49.4060    41.9020 ca         1 XS1      -0.252000
     16 C2         162.5260    48.1810    41.2030 ca         1 XS1       0.653900
     17 N1         163.7440    47.7490    40.9030 nb         1 XS1      -0.764000
     18 C3         164.7110    48.5630    41.3090 ca         1 XS1       0.393500
     19 C4         164.5880    49.7720    41.9900 ca         1 XS1      -0.071600
     20 C5         163.2900    50.2280    42.3080 ca         1 XS1       0.088700
     21 C6         163.0190    51.5280    43.0200 c3         1 XS1       0.071900
     22 N3         166.0440    48.4240    41.1670 na         1 XS1      -0.181100
     23 N4         166.6910    49.4560    41.7140 nc         1 XS1      -0.171400
     24 N5         165.8360    50.2680    42.2070 nd         1 XS1      -0.207400
     25 C7         163.7530    51.5990    44.3720 c3         1 XS1      -0.083400
     26 C8         163.4110    52.8330    45.1970 c3         1 XS1       0.158800
     27 N6         162.1010    52.7390    45.8270 n7         1 XS1      -0.864400
     28 C9         161.4360    54.0050    46.0860 c5         1 XS1       0.176500
     29 C10        161.9520    56.1790    45.0900 c5         1 XS1       0.174300
     30 O1         161.4440    57.3300    44.4420 os         1 XS1      -0.331100
     31 N7         163.1770    54.3860    40.7450 na         1 XS1       0.129800
     32 N8         164.4660    54.3500    41.0800 nd         1 XS1      -0.520800
     33 C14        162.6460    55.5090    40.0130 c3         1 XS1       0.127900
     34 C25        160.3010    58.3080    46.9460 ca         1 XS1      -0.062300
     35 C26        161.1340    59.2930    47.4740 ca         1 XS1      -0.102500
     36 C28        159.7540    61.0290    46.5360 ca         1 XS1      -0.113000
     37 C29        158.9090    60.0570    46.0160 ca         1 XS1      -0.111500
     38 C30        159.1840    58.7110    46.2200 ca         1 XS1      -0.102500
     39 H19        161.0500    57.5560    39.2460 ha         1 XS1       0.113000
     40 H18        159.9090    59.2050    40.6880 ha         1 XS1       0.115000
     41 H17        160.0960    59.0670    43.1450 ha         1 XS1       0.132000
     42 H20        162.7360    55.7210    42.7220 ha         1 XS1       0.129000
     43 H21        160.0940    55.1270    44.7670 hc         1 XS1       0.056700
     44 H22        161.4370    54.3850    43.9210 hc         1 XS1       0.056700
     45 H24        161.9630    54.7340    48.0970 hc         1 XS1       0.056700
     46 H23        163.2980    54.7240    46.9610 hc         1 XS1       0.056700
     47 H25        162.7280    57.0220    46.9370 hc         1 XS1       0.067700
     48 H26        159.7650    56.2460    46.8030 hc         1 XS1       0.046200
     49 H27        160.6240    56.6730    48.2590 hc         1 XS1       0.046200
     50 H13        161.4020    53.3190    41.2220 h4         1 XS1       0.152000
     51 H14        165.5530    53.0640    42.3070 h4         1 XS1       0.054100
     52 H1         161.2450    49.6800    42.1030 ha         1 XS1       0.120000
     53 H2         161.6530    46.5020    40.4600 hn         1 XS1       0.489000
     54 H3         160.5620    47.6110    41.1660 hn         1 XS1       0.489000
     55 H4         161.9410    51.5600    43.2060 hc         1 XS1       0.044700
     56 H5         166.5630    47.6770    40.7290 hn         1 XS1       0.387000
     57 H6         163.5230    50.6990    44.9500 hc         1 XS1       0.065200
     58 H7         164.8300    51.5860    44.1980 hc         1 XS1       0.065200
     59 H9         164.1760    52.9440    45.9710 h1         1 XS1       0.041200
     60 H8         163.5100    53.7170    44.5510 h1         1 XS1       0.041200
     61 H33        161.4850    52.1720    45.2580 hn         1 XS1       0.410000
     62 H11        160.4780    53.7520    46.5460 h1         1 XS1       0.059700
     63 H12        163.0010    56.0260    44.7970 h1         1 XS1       0.049700
     64 H16        163.4770    55.9630    39.4730 h1         1 XS1       0.077200
     65 H15        161.9440    55.1410    39.2630 h1         1 XS1       0.077200
     66 H28        162.0040    59.0060    48.0540 ha         1 XS1       0.107000
     67 H30        159.5450    62.0780    46.3750 ha         1 XS1       0.110000
     68 H31        158.0350    60.3460    45.4460 ha         1 XS1       0.109000
     69 H32        158.5230    57.9610    45.8020 ha         1 XS1       0.107000
     70 N2         161.4790    47.4340    40.7940 nv         1 XS1      -1.071900
     71 H29        161.5300    61.3890    47.6870 ha         1 XS1       0.109000
@<TRIPOS>BOND
     1     1    12 2   
     2     1    13 1   
     3     1    21 1   
     4     2     3 ar  
     5     2     6 ar  
     6     2    39 1   
     7     3     4 ar  
     8     3    40 1   
     9     4     5 ar  
    10     4    41 1   
    11     5     7 ar  
    12     5    30 1   
    13     6     7 ar  
    14     6    33 1   
    15     7    42 1   
    16     8    28 1   
    17     8    29 1   
    18     8    43 1   
    19     8    44 1   
    20     9    10 1   
    21     9    28 1   
    22     9    45 1   
    23     9    46 1   
    24    10    11 1   
    25    10    29 1   
    26    10    47 1   
    27    11    34 1   
    28    11    48 1   
    29    11    49 1   
    30    12    31 1   
    31    12    50 1   
    32    13    32 2   
    33    13    51 1   
    34    14    35 ar  
    35    14    36 ar  
    36    14    71 1   
    37    15    16 ar  
    38    15    20 ar  
    39    15    52 1   
    40    16    17 ar  
    41    16    70 1   
    42    17    18 ar  
    43    18    19 ar  
    44    18    22 1   
    45    19    20 ar  
    46    19    24 1   
    47    20    21 1   
    48    21    25 1   
    49    21    55 1   
    50    22    23 1   
    51    22    56 1   
    52    23    24 2   
    53    25    26 1   
    54    25    57 1   
    55    25    58 1   
    56    26    27 1   
    57    26    59 1   
    58    26    60 1   
    59    27    28 1   
    60    27    61 1   
    61    28    62 1   
    62    29    30 1   
    63    29    63 1   
    64    31    32 1   
    65    31    33 1   
    66    33    64 1   
    67    33    65 1   
    68    34    35 ar  
    69    34    38 ar  
    70    35    66 1   
    71    36    37 ar  
    72    36    67 1   
    73    37    38 ar  
    74    37    68 1   
    75    38    69 1   
    76    53    70 1   
    77    54    70 1   
@<TRIPOS>SUBSTRUCTURE
     1 XS1         1 TEMP              0 ****  ****    0 ROOT
