@<TRIPOS>MOLECULE
XS4
   90    95     1     0     0
SMALL
abcg2


@<TRIPOS>ATOM
      1 O27          3.8550     3.0130    -0.7790 o          1 XS4      -0.568100
      2 C12          4.9210     2.6190    -0.3510 c          1 XS4       0.670100
      3 N20          6.0120     3.3860    -0.1560 ns         1 XS4      -0.532900
      4 C32          6.1310     4.8120    -0.4840 c3         1 XS4       0.155400
      5 C41          7.5610     5.2030    -0.1150 c3         1 XS4      -0.105433
      6 C40          5.9160     5.0470    -1.9790 c3         1 XS4      -0.105433
      7 C39          5.1550     5.6520     0.3420 c3         1 XS4      -0.105433
      8 N7           5.1700     1.2780    -0.0360 ns         1 XS4      -0.352900
      9 C1           4.2510     0.2740     0.1320 ca         1 XS4       0.310900
     10 C9           4.7400    -1.0790     0.0760 cp         1 XS4      -0.176000
     11 C15          6.1500    -1.4020    -0.2330 cp         1 XS4       0.034000
     12 C23          6.8930    -2.1480     0.6730 ca         1 XS4      -0.184000
     13 C29          8.2110    -2.4890     0.3720 ca         1 XS4       0.178600
     14 O37          8.8600    -3.2110     1.3000 os         1 XS4      -0.339100
     15 C44         10.1960    -3.6040     1.0530 c3         1 XS4       0.148900
     16 C28          8.7910    -2.0810    -0.8290 ca         1 XS4      -0.289000
     17 C30          8.0340    -1.3320    -1.7300 ca         1 XS4       0.178600
     18 O38          8.5040    -0.9050    -2.9140 os         1 XS4      -0.339100
     19 C45          9.8250    -1.2430    -3.2900 c3         1 XS4       0.148900
     20 C22          6.7160    -0.9900    -1.4360 ca         1 XS4      -0.184000
     21 C16          3.8360    -2.0710     0.3280 ca         1 XS4       0.027000
     22 C13          2.4940    -1.7500     0.5900 ca         1 XS4      -0.298000
     23 C6           2.1120    -0.3900     0.5940 ca         1 XS4       0.179000
     24 N3           3.0070     0.5910     0.3830 nb         1 XS4      -0.177000
     25 C21          1.4730    -2.6810     0.8360 ca         1 XS4       0.196900
     26 N17          0.2360    -2.3330     1.0590 nb         1 XS4      -0.248000
     27 C14         -0.0280    -1.0010     1.0440 ca         1 XS4       0.406900
     28 N4           0.8460    -0.0290     0.8250 nb         1 XS4      -0.244000
     29 N24         -1.3020    -0.6510     1.2720 nu         1 XS4      -0.915100
     30 C31         -2.3600    -1.5980     1.5600 c3         1 XS4       0.232500
     31 C10         -3.6300    -0.8840     1.8650 cc         1 XS4       0.160300
     32 N8          -3.8750    -0.2990     3.0570 nc         1 XS4      -0.345000
     33 N2          -5.0490     0.2290     3.0350 nd         1 XS4      -0.202800
     34 C11         -4.7300    -0.6910     1.0710 cd         1 XS4      -0.189000
     35 N5          -5.5800     0.0010     1.8460 na         1 XS4       0.129800
     36 C19         -6.9230     0.4670     1.5330 c6         1 XS4       0.084300
     37 C26         -6.9070     1.5520     0.4650 c6         1 XS4      -0.090900
     38 C33         -8.3320     1.9860     0.1490 c6         1 XS4       0.168800
     39 N18         -9.1380     0.8580    -0.2730 n3         1 XS4      -0.727600
     40 C34         -9.2090    -0.1520     0.7660 c6         1 XS4       0.168800
     41 C25         -7.8250    -0.6820     1.1060 c6         1 XS4      -0.090900
     42 C35        -10.4510     1.2660    -0.7250 c3         1 XS4       0.218100
     43 C36        -11.1680     0.1720    -1.4750 ca         1 XS4      -0.092300
     44 C43        -12.5150    -0.0860    -1.2460 ca         1 XS4      -0.098500
     45 C46        -13.1840    -1.0670    -1.9680 ca         1 XS4      -0.113500
     46 C48        -12.5090    -1.8080    -2.9270 ca         1 XS4      -0.107000
     47 C47        -11.1600    -1.5610    -3.1580 ca         1 XS4      -0.113500
     48 C42        -10.4960    -0.5790    -2.4380 ca         1 XS4      -0.098500
     49 H1           6.8020     2.9740     0.3140 hn         1 XS4       0.306500
     50 H2           8.2930     4.6210    -0.6790 hc         1 XS4       0.045367
     51 H3           7.7290     6.2570    -0.3350 hc         1 XS4       0.045367
     52 H4           7.7500     5.0500     0.9500 hc         1 XS4       0.045367
     53 H5           4.8960     4.8200    -2.2850 hc         1 XS4       0.045367
     54 H6           6.1110     6.0930    -2.2200 hc         1 XS4       0.045367
     55 H7           6.5980     4.4330    -2.5700 hc         1 XS4       0.045367
     56 H8           5.3040     5.4790     1.4090 hc         1 XS4       0.045367
     57 H9           5.3210     6.7130     0.1480 hc         1 XS4       0.045367
     58 H10          4.1200     5.4250     0.0980 hc         1 XS4       0.045367
     59 H11          6.1380     0.9900    -0.0120 hn         1 XS4       0.159000
     60 H12          6.4600    -2.4590     1.6160 ha         1 XS4       0.138000
     61 H13         10.5120    -4.1800     1.9190 h1         1 XS4       0.041867
     62 H14         10.2770    -4.2340     0.1640 h1         1 XS4       0.041867
     63 H15         10.8610    -2.7440     0.9400 h1         1 XS4       0.041867
     64 H16          9.8130    -2.3420    -1.0570 ha         1 XS4       0.122000
     65 H17          9.9690    -2.3250    -3.3530 h1         1 XS4       0.041867
     66 H18          9.9850    -0.8110    -4.2750 h1         1 XS4       0.041867
     67 H19         10.5650    -0.8270    -2.6010 h1         1 XS4       0.041867
     68 H20          6.1380    -0.4310    -2.1620 ha         1 XS4       0.138000
     69 H21          4.1460    -3.1100     0.3010 ha         1 XS4       0.122000
     70 H22          1.7000    -3.7440     0.8450 h4         1 XS4       0.018100
     71 H23         -1.5090     0.3350     1.2880 hn         1 XS4       0.520000
     72 H24         -2.5160    -2.2690     0.7130 h1         1 XS4       0.063200
     73 H25         -2.0840    -2.2250     2.4120 h1         1 XS4       0.063200
     74 H29         -4.9530    -0.9910     0.0600 h4         1 XS4       0.172000
     75 H31         -7.2990     0.8890     2.4680 h1         1 XS4       0.090700
     76 H32         -6.3280     2.4130     0.8060 hc         1 XS4       0.062200
     77 H33         -6.4350     1.1740    -0.4470 hc         1 XS4       0.062200
     78 H34         -8.7630     2.4890     1.0330 h1         1 XS4       0.041200
     79 H35         -8.3090     2.7270    -0.6530 h1         1 XS4       0.041200
     80 H37         -9.6880     0.2440     1.6790 h1         1 XS4       0.041200
     81 H38         -9.8300    -0.9810     0.4210 h1         1 XS4       0.041200
     82 H39         -7.4110    -1.1800     0.2250 hc         1 XS4       0.062200
     83 H40         -7.8990    -1.4250     1.9020 hc         1 XS4       0.062200
     84 H41        -11.0870     1.6200     0.1040 h1         1 XS4       0.040700
     85 H42        -10.3230     2.1230    -1.3950 h1         1 XS4       0.040700
     86 H43        -13.0480     0.4830    -0.4940 ha         1 XS4       0.117000
     87 H44        -14.2330    -1.2550    -1.7750 ha         1 XS4       0.113000
     88 H45        -13.0270    -2.5760    -3.4860 ha         1 XS4       0.113000
     89 H46        -10.6240    -2.1360    -3.9030 ha         1 XS4       0.113000
     90 H47         -9.4430    -0.3980    -2.6130 ha         1 XS4       0.117000
@<TRIPOS>BOND
     1     1     2 2   
     2     2     3 1   
     3     2     8 1   
     4     3     4 1   
     5     3    49 1   
     6     4     5 1   
     7     4     6 1   
     8     4     7 1   
     9     5    50 1   
    10     5    51 1   
    11     5    52 1   
    12     6    53 1   
    13     6    54 1   
    14     6    55 1   
    15     7    56 1   
    16     7    57 1   
    17     7    58 1   
    18     8     9 1   
    19     8    59 1   
    20     9    10 ar  
    21     9    24 ar  
    22    10    11 1   
    23    10    21 ar  
    24    11    12 ar  
    25    11    20 ar  
    26    12    13 ar  
    27    12    60 1   
    28    13    14 1   
    29    13    16 ar  
    30    14    15 1   
    31    15    61 1   
    32    15    62 1   
    33    15    63 1   
    34    16    17 ar  
    35    16    64 1   
    36    17    18 1   
    37    17    20 ar  
    38    18    19 1   
    39    19    65 1   
    40    19    66 1   
    41    19    67 1   
    42    20    68 1   
    43    21    22 ar  
    44    21    69 1   
    45    22    23 ar  
    46    22    25 ar  
    47    23    24 ar  
    48    23    28 ar  
    49    25    26 ar  
    50    25    70 1   
    51    26    27 ar  
    52    27    28 ar  
    53    27    29 1   
    54    29    30 1   
    55    29    71 1   
    56    30    31 1   
    57    30    72 1   
    58    30    73 1   
    59    31    32 1   
    60    31    34 2   
    61    32    33 2   
    62    33    35 1   
    63    34    35 1   
    64    34    74 1   
    65    35    36 1   
    66    36    37 1   
    67    36    41 1   
    68    36    75 1   
    69    37    38 1   
    70    37    76 1   
    71    37    77 1   
    72    38    39 1   
    73    38    78 1   
    74    38    79 1   
    75    39    40 1   
    76    39    42 1   
    77    40    41 1   
    78    40    80 1   
    79    40    81 1   
    80    41    82 1   
    81    41    83 1   
    82    42    43 1   
    83    42    84 1   
    84    42    85 1   
    85    43    44 ar  
    86    43    48 ar  
    87    44    45 ar  
    88    44    86 1   
    89    45    46 ar  
    90    45    87 1   
    91    46    47 ar  
    92    46    88 1   
    93    47    48 ar  
    94    47    89 1   
    95    48    90 1   
@<TRIPOS>SUBSTRUCTURE
     1 XS4         1 TEMP              0 ****  ****    0 ROOT
