@<TRIPOS>MOLECULE
XS4
   90    95     1     0     0
SMALL
No Charge or Current Charge


@<TRIPOS>ATOM
      1 O27          3.5890     2.6520    -1.1330 o          1 XS4      -0.568100
      2 C12          4.6140     2.4650    -0.4970 c          1 XS4       0.670100
      3 N20          5.6740     3.3410    -0.4470 ns         1 XS4      -0.532900
      4 C32          5.7930     4.6310    -1.1360 c3         1 XS4       0.155400
      5 C41          7.1710     5.2200    -0.7570 c3         1 XS4      -0.105433
      6 C40          5.7320     4.4330    -2.6710 c3         1 XS4      -0.105433
      7 C39          4.6810     5.6020    -0.6680 c3         1 XS4      -0.105433
      8 N7           4.8580     1.3380     0.2430 ns         1 XS4      -0.352900
      9 C1           4.0540     0.1960     0.4080 ca         1 XS4       0.310900
     10 C9           4.6260    -1.0970     0.3040 cp         1 XS4      -0.176000
     11 C15          6.0550    -1.3320    -0.0640 cp         1 XS4       0.034000
     12 C23          6.8520    -2.2280     0.6820 ca         1 XS4      -0.184000
     13 C29          8.1930    -2.4640     0.3500 ca         1 XS4       0.178600
     14 O37          8.9010    -3.3490     1.1370 os         1 XS4      -0.339100
     15 C44         10.2820    -3.6660     0.8890 c3         1 XS4       0.148900
     16 C28          8.7690    -1.8030    -0.7540 ca         1 XS4      -0.289000
     17 C30          7.9880    -0.9130    -1.5190 ca         1 XS4       0.178600
     18 O38          8.4880    -0.2400    -2.6150 os         1 XS4      -0.339100
     19 C45          9.8490    -0.3890    -3.0550 c3         1 XS4       0.148900
     20 C22          6.6480    -0.6890    -1.1750 ca         1 XS4      -0.184000
     21 C16          3.7660    -2.1800     0.5780 ca         1 XS4       0.027000
     22 C13          2.4280    -1.9240     0.9250 ca         1 XS4      -0.298000
     23 C6           1.9470    -0.5920     1.0090 ca         1 XS4       0.179000
     24 N3           2.7760     0.4420     0.7570 nb         1 XS4      -0.177000
     25 C21          1.5430    -2.9820     1.1950 ca         1 XS4       0.196900
     26 N17          0.2630    -2.7560     1.5290 nb         1 XS4      -0.248000
     27 C14         -0.1110    -1.4680     1.5870 ca         1 XS4       0.406900
     28 N4           0.6560    -0.3920     1.3470 nb         1 XS4      -0.244000
     29 N24         -1.4270    -1.1930     1.9280 nu         1 XS4      -0.915100
     30 C31         -2.4820    -2.1650     2.3000 c3         1 XS4       0.232500
     31 C10         -3.8110    -1.4850     2.5590 cc         1 XS4       0.160300
     32 N8          -4.2550    -1.2260     3.8280 nc         1 XS4      -0.345000
     33 N2          -5.4200    -0.6320     3.7480 nd         1 XS4      -0.202800
     34 C11         -4.7120    -1.0430     1.6400 cd         1 XS4      -0.189000
     35 N5          -5.7180    -0.5100     2.4160 na         1 XS4       0.129800
     36 C19         -6.9670     0.1190     1.9290 c6         1 XS4       0.084300
     37 C26         -6.6720     1.3740     1.0700 c6         1 XS4      -0.090900
     38 C33         -7.9850     1.9940     0.5440 c6         1 XS4       0.168800
     39 N18         -8.7830     1.0020    -0.2270 n3         1 XS4      -0.727600
     40 C34         -9.1090    -0.2000     0.5930 c6         1 XS4       0.168800
     41 C25         -7.8290    -0.8830     1.1230 c6         1 XS4      -0.090900
     42 C35         -9.9810     1.6170    -0.8500 c3         1 XS4       0.218100
     43 C36        -10.7140     0.6820    -1.8100 ca         1 XS4      -0.092300
     44 C43        -12.0120     0.2230    -1.5100 ca         1 XS4      -0.098500
     45 C46        -12.6820    -0.6380    -2.3970 ca         1 XS4      -0.113500
     46 C48        -12.0590    -1.0450    -3.5890 ca         1 XS4      -0.107000
     47 C47        -10.7650    -0.5900    -3.8940 ca         1 XS4      -0.113500
     48 C42        -10.0940     0.2710    -3.0070 ca         1 XS4      -0.098500
     49 H1           6.4570     3.0480     0.1210 hn         1 XS4       0.306500
     50 H2           7.9830     4.5510    -1.0700 hc         1 XS4       0.045367
     51 H3           7.3290     6.1910    -1.2420 hc         1 XS4       0.045367
     52 H4           7.2510     5.3670     0.3270 hc         1 XS4       0.045367
     53 H5           4.7500     4.0700    -2.9940 hc         1 XS4       0.045367
     54 H6           5.9210     5.3790    -3.1920 hc         1 XS4       0.045367
     55 H7           6.4870     3.7080    -3.0010 hc         1 XS4       0.045367
     56 H8           4.6900     5.7080     0.4240 hc         1 XS4       0.045367
     57 H9           4.8260     6.5970    -1.1060 hc         1 XS4       0.045367
     58 H10          3.6860     5.2540    -0.9670 hc         1 XS4       0.045367
     59 H11          5.7730     1.2750     0.6670 hn         1 XS4       0.159000
     60 H12          6.4250    -2.7400     1.5400 ha         1 XS4       0.138000
     61 H13         10.6460    -4.3870     1.6310 h1         1 XS4       0.041867
     62 H14         10.4090    -4.1090    -0.1070 h1         1 XS4       0.041867
     63 H15         10.9070    -2.7660     0.9560 h1         1 XS4       0.041867
     64 H16          9.8050    -1.9800    -1.0150 ha         1 XS4       0.122000
     65 H17         10.0590    -1.4320    -3.3270 h1         1 XS4       0.041867
     66 H18         10.0330     0.2350    -3.9380 h1         1 XS4       0.041867
     67 H19         10.5500    -0.0810    -2.2690 h1         1 XS4       0.041867
     68 H20          6.0580    -0.0140    -1.7870 ha         1 XS4       0.138000
     69 H21          4.1340    -3.2030     0.5120 ha         1 XS4       0.122000
     70 H22          1.8610    -4.0230     1.1450 h4         1 XS4       0.018100
     71 H23         -1.6590    -0.2010     1.9950 hn         1 XS4       0.520000
     72 H24         -2.6200    -2.8980     1.4930 h1         1 XS4       0.063200
     73 H25         -2.1820    -2.7220     3.2000 h1         1 XS4       0.063200
     74 H29         -4.7130    -1.0640     0.5580 h4         1 XS4       0.172000
     75 H31         -7.5450     0.4360     2.8090 h1         1 XS4       0.090700
     76 H32         -6.1220     2.1170     1.6630 hc         1 XS4       0.062200
     77 H33         -6.0300     1.1110     0.2180 hc         1 XS4       0.062200
     78 H34         -8.5700     2.3770     1.3950 h1         1 XS4       0.041200
     79 H35         -7.7350     2.8580    -0.0900 h1         1 XS4       0.041200
     80 H37         -9.7480     0.0800     1.4440 h1         1 XS4       0.041200
     81 H38         -9.6700    -0.9360    -0.0010 h1         1 XS4       0.041200
     82 H39         -7.2570    -1.2830     0.2740 hc         1 XS4       0.062200
     83 H40         -8.1000    -1.7410     1.7530 hc         1 XS4       0.062200
     84 H41        -10.6780     1.9550    -0.0710 h1         1 XS4       0.040700
     85 H42         -9.6850     2.5100    -1.4170 h1         1 XS4       0.040700
     86 H43        -12.5020     0.5300    -0.5890 ha         1 XS4       0.117000
     87 H44        -13.6840    -0.9900    -2.1600 ha         1 XS4       0.113000
     88 H45        -12.5770    -1.7110    -4.2750 ha         1 XS4       0.113000
     89 H46        -10.2800    -0.9050    -4.8150 ha         1 XS4       0.113000
     90 H47         -9.0910     0.6160    -3.2440 ha         1 XS4       0.117000
@<TRIPOS>BOND
     1     1     2 2   
     2     2     3 1   
     3     2     8 1   
     4     3     4 1   
     5     3    49 1   
     6     4     5 1   
     7     4     6 1   
     8     4     7 1   
     9     5    50 1   
    10     5    51 1   
    11     5    52 1   
    12     6    53 1   
    13     6    54 1   
    14     6    55 1   
    15     7    56 1   
    16     7    57 1   
    17     7    58 1   
    18     8     9 1   
    19     8    59 1   
    20     9    10 ar  
    21     9    24 ar  
    22    10    11 1   
    23    10    21 ar  
    24    11    12 ar  
    25    11    20 ar  
    26    12    13 ar  
    27    12    60 1   
    28    13    14 1   
    29    13    16 ar  
    30    14    15 1   
    31    15    61 1   
    32    15    62 1   
    33    15    63 1   
    34    16    17 ar  
    35    16    64 1   
    36    17    18 1   
    37    17    20 ar  
    38    18    19 1   
    39    19    65 1   
    40    19    66 1   
    41    19    67 1   
    42    20    68 1   
    43    21    22 ar  
    44    21    69 1   
    45    22    23 ar  
    46    22    25 ar  
    47    23    24 ar  
    48    23    28 ar  
    49    25    26 ar  
    50    25    70 1   
    51    26    27 ar  
    52    27    28 ar  
    53    27    29 1   
    54    29    30 1   
    55    29    71 1   
    56    30    31 1   
    57    30    72 1   
    58    30    73 1   
    59    31    32 1   
    60    31    34 2   
    61    32    33 2   
    62    33    35 1   
    63    34    35 1   
    64    34    74 1   
    65    35    36 1   
    66    36    37 1   
    67    36    41 1   
    68    36    75 1   
    69    37    38 1   
    70    37    76 1   
    71    37    77 1   
    72    38    39 1   
    73    38    78 1   
    74    38    79 1   
    75    39    40 1   
    76    39    42 1   
    77    40    41 1   
    78    40    80 1   
    79    40    81 1   
    80    41    82 1   
    81    41    83 1   
    82    42    43 1   
    83    42    84 1   
    84    42    85 1   
    85    43    44 ar  
    86    43    48 ar  
    87    44    45 ar  
    88    44    86 1   
    89    45    46 ar  
    90    45    87 1   
    91    46    47 ar  
    92    46    88 1   
    93    47    48 ar  
    94    47    89 1   
    95    48    90 1   
@<TRIPOS>SUBSTRUCTURE
     1 XS4         1 TEMP              0 ****  ****    0 ROOT
