@<TRIPOS>MOLECULE
XS6
   35    34     1     0     0
SMALL
No Charge or Current Charge


@<TRIPOS>ATOM
      1 C2           6.6600     0.2140     0.2080 c3         1 XS6       0.149800
      2 C3           5.2710    -0.4540     0.2170 c3         1 XS6      -0.082400
      3 C4           4.1340     0.5560    -0.0330 c3         1 XS6       0.159800
      4 C6           1.6620     0.7500    -0.2200 c3         1 XS6       0.160800
      5 C7           0.3580    -0.0720    -0.1570 c3         1 XS6      -0.078400
      6 C8          -0.9060     0.7910    -0.3660 c3         1 XS6      -0.075400
      7 C9          -2.2150    -0.0260    -0.3040 c3         1 XS6      -0.067400
      8 C10         -3.4790     0.8410    -0.5140 c3         1 XS6      -0.159400
      9 C11         -4.7620     0.0000    -0.4470 c          1 XS6       0.602100
     10 N1           7.7370    -0.7630     0.4530 n8         1 XS6      -0.992200
     11 N5           2.8270    -0.1260    -0.0090 n7         1 XS6      -0.858400
     12 N13         -5.5240     0.1800     0.7020 ns         1 XS6      -0.390400
     13 O12         -5.0970    -0.7550    -1.3500 o          1 XS6      -0.570100
     14 O14         -6.8800    -0.3250     0.7870 oh         1 XS6      -0.425100
     15 H1           6.8350     0.6940    -0.7650 h1         1 XS6       0.025700
     16 H2           6.7030     0.9860     0.9890 h1         1 XS6       0.025700
     17 H3           5.2380    -1.2340    -0.5530 hc         1 XS6       0.053200
     18 H4           5.1110    -0.9430     1.1850 hc         1 XS6       0.053200
     19 H5           4.1710     1.3350     0.7410 h1         1 XS6       0.026200
     20 H6           4.2920     1.0420    -1.0060 h1         1 XS6       0.026200
     21 H7           1.7280     1.2440    -1.1990 h1         1 XS6       0.026200
     22 H8           1.6290     1.5320     0.5510 h1         1 XS6       0.026200
     23 H9           0.3880    -0.8570    -0.9220 hc         1 XS6       0.048700
     24 H10          0.2950    -0.5720     0.8170 hc         1 XS6       0.048700
     25 H11         -0.9350     1.5780     0.3990 hc         1 XS6       0.036700
     26 H12         -0.8410     1.2940    -1.3400 hc         1 XS6       0.036700
     27 H13         -2.1850    -0.8140    -1.0680 hc         1 XS6       0.055700
     28 H14         -2.2810    -0.5290     0.6700 hc         1 XS6       0.055700
     29 H15         -3.5000     1.6190     0.2580 hc         1 XS6       0.058700
     30 H16         -3.4200     1.3060    -1.5050 hc         1 XS6       0.058700
     31 H17          7.7580    -1.4380    -0.3220 hn         1 XS6       0.391500
     32 H18          8.6450    -0.2870     0.3800 hn         1 XS6       0.391500
     33 H20          2.8260    -0.8400    -0.7470 hn         1 XS6       0.405000
     34 H22         -5.2820     0.9290     1.3490 hn         1 XS6       0.332500
     35 H23         -6.8950    -0.8070     1.6470 ho         1 XS6       0.445000
@<TRIPOS>BOND
     1     1     2 1   
     2     1    10 1   
     3     1    15 1   
     4     1    16 1   
     5     2     3 1   
     6     2    17 1   
     7     2    18 1   
     8     3    11 1   
     9     3    19 1   
    10     3    20 1   
    11     4     5 1   
    12     4    11 1   
    13     4    21 1   
    14     4    22 1   
    15     5     6 1   
    16     5    23 1   
    17     5    24 1   
    18     6     7 1   
    19     6    25 1   
    20     6    26 1   
    21     7     8 1   
    22     7    27 1   
    23     7    28 1   
    24     8     9 1   
    25     8    29 1   
    26     8    30 1   
    27     9    12 1   
    28     9    13 2   
    29    10    31 1   
    30    10    32 1   
    31    11    33 1   
    32    12    14 1   
    33    12    34 1   
    34    14    35 1   
@<TRIPOS>SUBSTRUCTURE
     1 XS6         1 TEMP              0 ****  ****    0 ROOT
