@<TRIPOS>MOLECULE
XS6
   35    34     1     0     0
SMALL
bcc


@<TRIPOS>ATOM
      1 C2           6.5950     0.3080     0.1280 c3         1 XS6       0.149800
      2 C3           5.2740    -0.4470     0.1370 c3         1 XS6      -0.082400
      3 C4           4.0760     0.4810     0.0190 c3         1 XS6       0.159800
      4 C6           1.6640     0.5940    -0.1200 c3         1 XS6       0.160800
      5 C7           0.3720    -0.2060    -0.0610 c3         1 XS6      -0.078400
      6 C8          -0.8630     0.6630    -0.2580 c3         1 XS6      -0.075400
      7 C9          -2.1610    -0.1290    -0.1740 c3         1 XS6      -0.067400
      8 C10         -3.3840     0.7590    -0.3790 c3         1 XS6      -0.159400
      9 C11         -4.6770    -0.0210    -0.3450 c          1 XS6       0.669100
     10 N1           7.7190    -0.6130     0.2220 n8         1 XS6      -0.881800
     11 N5           2.8270    -0.2560     0.0530 n7         1 XS6      -0.803200
     12 N13         -5.6130     0.5230     0.4560 ns         1 XS6      -0.457400
     13 O12         -4.8500    -1.0540    -0.9690 o          1 XS6      -0.570100
     14 O14         -6.8880     0.0410     0.4420 oh         1 XS6      -0.386100
     15 H1           6.6310     0.9530    -0.7620 h1         1 XS6       0.025700
     16 H2           6.6280     0.9780     0.9910 h1         1 XS6       0.025700
     17 H3           5.2610    -1.1600    -0.6960 hc         1 XS6       0.053200
     18 H4           5.1960    -1.0340     1.0560 hc         1 XS6       0.053200
     19 H5           4.0800     1.1860     0.8580 h1         1 XS6       0.026200
     20 H6           4.1770     1.0950    -0.8920 h1         1 XS6       0.026200
     21 H7           1.6960     1.1660    -1.0630 h1         1 XS6       0.026200
     22 H8           1.6620     1.3380     0.6830 h1         1 XS6       0.026200
     23 H9           0.3920    -0.9880    -0.8300 hc         1 XS6       0.048700
     24 H10          0.3150    -0.7220     0.9030 hc         1 XS6       0.048700
     25 H11         -0.8720     1.4590     0.4940 hc         1 XS6       0.036700
     26 H12         -0.8070     1.1640    -1.2310 hc         1 XS6       0.036700
     27 H13         -2.1550    -0.9230    -0.9240 hc         1 XS6       0.055700
     28 H14         -2.2250    -0.6210     0.8020 hc         1 XS6       0.055700
     29 H15         -3.3890     1.5640     0.3610 hc         1 XS6       0.058700
     30 H16         -3.3250     1.2450    -1.3580 hc         1 XS6       0.058700
     31 H17          7.7640    -1.1660    -0.6260 hn         1 XS6       0.336300
     32 H18          8.5830    -0.0860     0.2460 hn         1 XS6       0.336300
     33 H20          2.8380    -0.9430    -0.6930 hn         1 XS6       0.349800
     34 H22         -5.5140     1.4460     0.8520 hn         1 XS6       0.332500
     35 H23         -6.9600    -0.5470     1.2040 ho         1 XS6       0.406000
@<TRIPOS>BOND
     1     1     2 1   
     2     1    10 1   
     3     1    15 1   
     4     1    16 1   
     5     2     3 1   
     6     2    17 1   
     7     2    18 1   
     8     3    11 1   
     9     3    19 1   
    10     3    20 1   
    11     4     5 1   
    12     4    11 1   
    13     4    21 1   
    14     4    22 1   
    15     5     6 1   
    16     5    23 1   
    17     5    24 1   
    18     6     7 1   
    19     6    25 1   
    20     6    26 1   
    21     7     8 1   
    22     7    27 1   
    23     7    28 1   
    24     8     9 1   
    25     8    29 1   
    26     8    30 1   
    27     9    12 1   
    28     9    13 2   
    29    10    31 1   
    30    10    32 1   
    31    11    33 1   
    32    12    14 1   
    33    12    34 1   
    34    14    35 1   
@<TRIPOS>SUBSTRUCTURE
     1 XS6         1 TEMP              0 ****  ****    0 ROOT
