@<TRIPOS>MOLECULE
XS8
   22    23     1     0     0
SMALL
abcg2


@<TRIPOS>ATOM
      1 C4          -0.2200    -9.8660    24.5290 ca         1 XS8       0.148100
      2 C5          -1.4090   -10.2460    23.9040 ca         1 XS8      -0.138300
      3 C6          -1.9210    -9.4430    22.8880 ca         1 XS8      -0.116000
      4 C8          -0.1480   -11.8880    25.7520 c6         1 XS8       0.165600
      5 C10         -2.1380   -11.5030    24.3100 c6         1 XS8       0.215800
      6 C1          -1.2550    -8.2980    22.5100 ca         1 XS8       0.132000
      7 C2          -0.0830    -7.9040    23.1280 ca         1 XS8      -0.112000
      8 C3           0.4310    -8.6940    24.1420 ca         1 XS8      -0.122000
      9 C9          -1.6580   -11.9350    25.6900 c6         1 XS8      -0.108400
     10 F12         -1.7630    -7.5440    21.5170 f          1 XS8      -0.182000
     11 N11         -1.8560   -12.5590    23.3410 n8         1 XS8      -0.997200
     12 O7           0.3430   -10.5690    25.5340 os         1 XS8      -0.342100
     13 H15         -2.8500    -9.7180    22.4010 ha         1 XS8       0.123000
     14 H16          0.2800   -12.5630    25.0040 h1         1 XS8       0.064200
     15 H17          0.2240   -12.1870    26.7310 h1         1 XS8       0.064200
     16 H20         -3.2090   -11.2630    24.3680 h1         1 XS8       0.032700
     17 H13          0.4260    -6.9980    22.8250 ha         1 XS8       0.133000
     18 H14          1.3470    -8.4050    24.6400 ha         1 XS8       0.132000
     19 H18         -2.0000   -12.9490    25.9100 hc         1 XS8       0.057200
     20 H19         -2.0860   -11.2820    26.4550 hc         1 XS8       0.057200
     21 H21         -2.4600   -13.3500    23.5350 hn         1 XS8       0.398000
     22 H22         -2.1020   -12.2460    22.4100 hn         1 XS8       0.398000
@<TRIPOS>BOND
     1     1     2 ar  
     2     1     8 ar  
     3     1    12 1   
     4     2     3 ar  
     5     2     5 1   
     6     3     6 ar  
     7     3    13 1   
     8     4     9 1   
     9     4    12 1   
    10     4    14 1   
    11     4    15 1   
    12     5     9 1   
    13     5    11 1   
    14     5    16 1   
    15     6     7 ar  
    16     6    10 1   
    17     7     8 ar  
    18     7    17 1   
    19     8    18 1   
    20     9    19 1   
    21     9    20 1   
    22    11    21 1   
    23    11    22 1   
@<TRIPOS>SUBSTRUCTURE
     1 XS8         1 TEMP              0 ****  ****    0 ROOT
