@<TRIPOS>MOLECULE
XS8
   22    23     1     0     0
SMALL
No Charge or Current Charge


@<TRIPOS>ATOM
      1 C4          -0.1900    -9.8320    24.5350 ca         1 XS8       0.148100
      2 C5          -1.3820   -10.2370    23.8840 ca         1 XS8      -0.138300
      3 C6          -1.9060    -9.4400    22.8430 ca         1 XS8      -0.116000
      4 C8          -0.1130   -11.9160    25.7950 c6         1 XS8       0.165600
      5 C10         -2.1120   -11.5110    24.3120 c6         1 XS8       0.215800
      6 C1          -1.2500    -8.2580    22.4620 ca         1 XS8       0.132000
      7 C2          -0.0750    -7.8540    23.1140 ca         1 XS8      -0.112000
      8 C3           0.4520    -8.6410    24.1540 ca         1 XS8      -0.122000
      9 C9          -1.6500   -11.9790    25.7060 c6         1 XS8      -0.108400
     10 F12         -1.7590    -7.5010    21.4660 f          1 XS8      -0.182000
     11 N11         -1.9120   -12.5840    23.3220 n8         1 XS8      -0.997200
     12 O7           0.3500   -10.5670    25.5710 os         1 XS8      -0.342100
     13 H15         -2.8210    -9.7320    22.3340 ha         1 XS8       0.123000
     14 H16          0.3340   -12.5760    25.0380 h1         1 XS8       0.064200
     15 H17          0.2290   -12.2530    26.7840 h1         1 XS8       0.064200
     16 H20         -3.1930   -11.3070    24.3490 h1         1 XS8       0.032700
     17 H13          0.4230    -6.9350    22.8150 ha         1 XS8       0.133000
     18 H14          1.3600    -8.3320    24.6650 ha         1 XS8       0.132000
     19 H18         -2.0060   -12.9960    25.9190 hc         1 XS8       0.057200
     20 H19         -2.0840   -11.3280    26.4760 hc         1 XS8       0.057200
     21 H21         -2.5280   -13.3690    23.5620 hn         1 XS8       0.398000
     22 H22         -2.2740   -12.2590    22.4190 hn         1 XS8       0.398000
@<TRIPOS>BOND
     1     1     2 ar  
     2     1     8 ar  
     3     1    12 1   
     4     2     3 ar  
     5     2     5 1   
     6     3     6 ar  
     7     3    13 1   
     8     4     9 1   
     9     4    12 1   
    10     4    14 1   
    11     4    15 1   
    12     5     9 1   
    13     5    11 1   
    14     5    16 1   
    15     6     7 ar  
    16     6    10 1   
    17     7     8 ar  
    18     7    17 1   
    19     8    18 1   
    20     9    19 1   
    21     9    20 1   
    22    11    21 1   
    23    11    22 1   
@<TRIPOS>SUBSTRUCTURE
     1 XS8         1 TEMP              0 ****  ****    0 ROOT
