@<TRIPOS>MOLECULE
XSD
   49    53     1     0     0
SMALL
No Charge or Current Charge


@<TRIPOS>ATOM
      1 C13        121.2850    24.9550   253.7910 ca         1 XSD       0.137100
      2 C18        120.5420    24.7820   250.2700 ca         1 XSD      -0.120000
      3 C17        121.3560    25.0750   251.3780 ca         1 XSD       0.096100
      4 C16        122.3670    24.1580   256.2590 ca         1 XSD      -0.138000
      5 C15        121.7200    25.4010   256.1420 ca         1 XSD      -0.080000
      6 C19        121.1260    24.4830   249.0260 ca         1 XSD      -0.097000
      7 C20        122.5250    24.4850   248.8870 ca         1 XSD      -0.110000
      8 C21        123.3420    24.7910   249.9900 ca         1 XSD      -0.097000
      9 C22        122.7590    25.0910   251.2340 ca         1 XSD      -0.120000
     10 C11        122.4700    23.2980   255.1470 ca         1 XSD      -0.081300
     11 C12        121.9060    23.6980   253.9170 ca         1 XSD      -0.161000
     12 C1         128.4960    22.7840   252.2160 ca         1 XSD      -0.250000
     13 C2         129.8110    22.5170   252.6200 ca         1 XSD       0.652900
     14 N1         130.4110    21.3350   252.5580 nb         1 XSD      -0.765000
     15 C3         129.6550    20.3320   252.0680 ca         1 XSD       0.395500
     16 C4         128.3600    20.4730   251.6460 ca         1 XSD      -0.078600
     17 C5         127.7240    21.7240   251.7030 ca         1 XSD       0.085700
     18 C7         125.2980    21.6000   252.3470 cc         1 XSD      -0.204300
     19 C8         124.6200    20.3760   252.4690 cc         1 XSD       0.261900
     20 N3         123.8030    20.3120   253.5010 nd         1 XSD      -0.522800
     21 N4         123.9630    21.5620   254.0840 na         1 XSD       0.126800
     22 C9         124.8830    22.3620   253.3970 cd         1 XSD      -0.164000
     23 C10        123.1900    21.9540   255.2800 c3         1 XSD       0.129900
     24 C14        121.1820    25.8000   254.9060 ca         1 XSD      -0.134000
     25 N5         129.9310    19.0150   251.8700 na         1 XSD      -0.182100
     26 N6         128.8220    18.3670   251.3380 nc         1 XSD      -0.173400
     27 N7         127.8510    19.2620   251.1990 nd         1 XSD      -0.206400
     28 O1         120.7600    25.3650   252.5860 os         1 XSD      -0.253200
     29 H1         119.4610    24.7790   250.3790 ha         1 XSD       0.127000
     30 H2         122.7890    23.8640   257.2180 ha         1 XSD       0.113000
     31 H3         121.6440    26.0580   257.0060 ha         1 XSD       0.116000
     32 H4         120.4940    24.2500   248.1710 ha         1 XSD       0.116000
     33 H5         122.9760    24.2530   247.9250 ha         1 XSD       0.118000
     34 H6         124.4240    24.7990   249.8800 ha         1 XSD       0.116000
     35 H7         123.3960    25.3360   252.0800 ha         1 XSD       0.127000
     36 H8         121.9570    23.0380   253.0550 ha         1 XSD       0.141000
     37 H9         128.0850    23.7840   252.3040 ha         1 XSD       0.122000
     38 H10        131.6060    23.1580   253.1220 hn         1 XSD       0.488500
     39 H11        130.4510    24.4050   252.8580 hn         1 XSD       0.488500
     40 H12        126.1360    22.9660   250.9370 hc         1 XSD       0.061200
     41 H13        126.0750    21.3160   250.3710 hc         1 XSD       0.061200
     42 H14        124.7010    19.5170   251.8160 h4         1 XSD       0.055100
     43 H15        125.1410    23.3700   253.7010 h4         1 XSD       0.151000
     44 H16        122.4490    21.1740   255.4920 h1         1 XSD       0.076200
     45 H17        123.8840    21.9910   256.1290 h1         1 XSD       0.076200
     46 H18        120.6900    26.7650   254.8110 ha         1 XSD       0.130000
     47 H19        130.8030    18.5410   252.0690 hn         1 XSD       0.387000
     48 C6         126.2830    21.9280   251.2570 c3         1 XSD       0.054200
     49 N2         130.6340    23.4400   253.1090 nv         1 XSD      -1.070900
@<TRIPOS>BOND
     1     1    11 ar  
     2     1    24 ar  
     3     1    28 1   
     4     2     3 ar  
     5     2     6 ar  
     6     2    29 1   
     7     3     9 ar  
     8     3    28 1   
     9     4     5 ar  
    10     4    10 ar  
    11     4    30 1   
    12     5    24 ar  
    13     5    31 1   
    14     6     7 ar  
    15     6    32 1   
    16     7     8 ar  
    17     7    33 1   
    18     8     9 ar  
    19     8    34 1   
    20     9    35 1   
    21    10    11 ar  
    22    10    23 1   
    23    11    36 1   
    24    12    13 ar  
    25    12    17 ar  
    26    12    37 1   
    27    13    14 ar  
    28    13    49 1   
    29    14    15 ar  
    30    15    16 ar  
    31    15    25 1   
    32    16    17 ar  
    33    16    27 1   
    34    17    48 1   
    35    18    19 1   
    36    18    22 2   
    37    18    48 1   
    38    19    20 2   
    39    19    42 1   
    40    20    21 1   
    41    21    22 1   
    42    21    23 1   
    43    22    43 1   
    44    23    44 1   
    45    23    45 1   
    46    24    46 1   
    47    25    26 1   
    48    25    47 1   
    49    26    27 2   
    50    38    49 1   
    51    39    49 1   
    52    40    48 1   
    53    41    48 1   
@<TRIPOS>SUBSTRUCTURE
     1 XSD         1 TEMP              0 ****  ****    0 ROOT
