@<TRIPOS>MOLECULE
XSD
   49    53     1     0     0
SMALL
abcg2


@<TRIPOS>ATOM
      1 C13        120.9650    24.7370   253.5960 ca         1 XSD       0.137100
      2 C18        120.9980    23.6570   250.4060 ca         1 XSD      -0.120000
      3 C17        121.4000    24.6500   251.2850 ca         1 XSD       0.096100
      4 C16        121.6840    24.2840   256.2370 ca         1 XSD      -0.138000
      5 C15        120.6540    25.1620   255.9300 ca         1 XSD      -0.080000
      6 C19        121.8180    23.3230   249.3360 ca         1 XSD      -0.097000
      7 C20        123.0330    23.9670   249.1540 ca         1 XSD      -0.110000
      8 C21        123.4250    24.9610   250.0440 ca         1 XSD      -0.097000
      9 C22        122.6110    25.3090   251.1110 ca         1 XSD      -0.120000
     10 C11        122.3530    23.6190   255.2150 ca         1 XSD      -0.081300
     11 C12        121.9830    23.8380   253.8940 ca         1 XSD      -0.161000
     12 C1         128.9960    22.4980   252.4480 ca         1 XSD      -0.250000
     13 C2         130.1630    21.6720   252.5520 ca         1 XSD       0.652900
     14 N1         130.2550    20.4620   252.0160 nb         1 XSD      -0.765000
     15 C3         129.1590    20.0790   251.3730 ca         1 XSD       0.395500
     16 C4         127.9730    20.7890   251.2120 ca         1 XSD      -0.078600
     17 C5         127.8790    22.0740   251.7810 ca         1 XSD       0.085700
     18 C7         125.5930    22.4530   252.6700 cc         1 XSD      -0.204300
     19 C8         124.7750    21.3070   252.6330 cc         1 XSD       0.261900
     20 N3         123.9840    21.2410   253.6870 nd         1 XSD      -0.522800
     21 N4         124.2820    22.3120   254.4200 na         1 XSD       0.126800
     22 C9         125.2340    23.0740   253.8440 cd         1 XSD      -0.164000
     23 C10        123.4720    22.6630   255.5580 c3         1 XSD       0.129900
     24 C14        120.2910    25.4020   254.6130 ca         1 XSD      -0.134000
     25 N5         128.9180    18.9290   250.7130 na         1 XSD      -0.182100
     26 N6         127.6890    18.9280   250.1900 nc         1 XSD      -0.173400
     27 N7         127.1130    20.0330   250.4780 nd         1 XSD      -0.206400
     28 O1         120.5640    24.9920   252.3190 os         1 XSD      -0.253200
     29 H1         120.0530    23.1510   250.5590 ha         1 XSD       0.127000
     30 H2         121.9710    24.1240   257.2690 ha         1 XSD       0.113000
     31 H3         120.1350    25.6810   256.7250 ha         1 XSD       0.116000
     32 H4         121.5050    22.5490   248.6470 ha         1 XSD       0.116000
     33 H5         123.6720    23.7000   248.3230 ha         1 XSD       0.118000
     34 H6         124.3700    25.4710   249.9060 ha         1 XSD       0.116000
     35 H7         122.9150    26.0840   251.8040 ha         1 XSD       0.127000
     36 H8         122.4870    23.3130   253.0940 ha         1 XSD       0.141000
     37 H9         129.0120    23.4760   252.9140 ha         1 XSD       0.122000
     38 H10        132.0960    21.6320   253.1760 hn         1 XSD       0.488500
     39 H11        131.2810    23.0990   253.4980 hn         1 XSD       0.488500
     40 H12        126.8710    23.9470   251.8580 hc         1 XSD       0.061200
     41 H13        126.2260    22.8300   250.6690 hc         1 XSD       0.061200
     42 H14        124.7480    20.5370   251.8770 h4         1 XSD       0.055100
     43 H15        125.5780    23.9910   254.2960 h4         1 XSD       0.151000
     44 H16        123.0710    21.7370   255.9720 h1         1 XSD       0.076200
     45 H17        124.1140    23.1020   256.3220 h1         1 XSD       0.076200
     46 H18        119.4990    26.0990   254.3750 ha         1 XSD       0.130000
     47 H19        129.5220    18.1300   250.5820 hn         1 XSD       0.387000
     48 C6         126.6270    22.8980   251.6830 c3         1 XSD       0.054200
     49 N2         131.2230    22.1250   253.2540 nv         1 XSD      -1.070900
@<TRIPOS>BOND
     1     1    11 ar  
     2     1    24 ar  
     3     1    28 1   
     4     2     3 ar  
     5     2     6 ar  
     6     2    29 1   
     7     3     9 ar  
     8     3    28 1   
     9     4     5 ar  
    10     4    10 ar  
    11     4    30 1   
    12     5    24 ar  
    13     5    31 1   
    14     6     7 ar  
    15     6    32 1   
    16     7     8 ar  
    17     7    33 1   
    18     8     9 ar  
    19     8    34 1   
    20     9    35 1   
    21    10    11 ar  
    22    10    23 1   
    23    11    36 1   
    24    12    13 ar  
    25    12    17 ar  
    26    12    37 1   
    27    13    14 ar  
    28    13    49 1   
    29    14    15 ar  
    30    15    16 ar  
    31    15    25 1   
    32    16    17 ar  
    33    16    27 1   
    34    17    48 1   
    35    18    19 1   
    36    18    22 2   
    37    18    48 1   
    38    19    20 2   
    39    19    42 1   
    40    20    21 1   
    41    21    22 1   
    42    21    23 1   
    43    22    43 1   
    44    23    44 1   
    45    23    45 1   
    46    24    46 1   
    47    25    26 1   
    48    25    47 1   
    49    26    27 2   
    50    38    49 1   
    51    39    49 1   
    52    40    48 1   
    53    41    48 1   
@<TRIPOS>SUBSTRUCTURE
     1 XSD         1 TEMP              0 ****  ****    0 ROOT
