@<TRIPOS>MOLECULE
XSE
   49    53     1     0     0
SMALL
abcg2


@<TRIPOS>ATOM
      1 C10         -6.2500   -12.5270    48.3170 ca         1 XSE      -0.058000
      2 C12         -5.9230   -14.8580    48.9010 ca         1 XSE      -0.014000
      3 C13         -2.2850    -9.4920    49.1580 ca         1 XSE       0.620900
      4 C14         -3.0110    -8.7110    47.0230 ca         1 XSE      -0.006000
      5 C15         -2.1950    -7.5910    47.1770 ca         1 XSE      -0.233600
      6 C16         -1.4430    -7.5140    48.3460 ca         1 XSE       0.401900
      7 C17         -2.0410    -6.6110    46.0590 c          1 XSE       0.624700
      8 C18         -3.0800    -9.6680    48.0170 ca         1 XSE      -0.190000
      9 C19         -2.6810    -4.7070    47.5550 c6         1 XSE       0.058500
     10 C20         -3.9280    -3.8950    47.1870 c6         1 XSE       0.126300
     11 C21         -3.0640    -3.5060    44.9640 c6         1 XSE       0.126300
     12 C01         -4.5050   -13.0970    49.9830 cp         1 XSE       0.206500
     13 C02         -4.1370   -13.7790    51.1400 ca         1 XSE       0.014000
     14 C03         -3.1350   -13.2640    51.9430 ca         1 XSE       0.123900
     15 C04         -2.9010   -11.5310    50.5050 ca         1 XSE       0.384900
     16 C05         -8.2990   -16.4810    46.8430 cc         1 XSE       0.391100
     17 C06         -1.8050    -4.3010    45.3100 c6         1 XSE       0.058500
     18 C07         -7.5900   -14.1890    47.2640 ca         1 XSE      -0.163000
     19 C08         -6.9260   -15.1980    47.9940 ca         1 XSE       0.074400
     20 C09         -7.2570   -12.8450    47.4280 ca         1 XSE      -0.083000
     21 C11         -5.5780   -13.5190    49.0630 cp         1 XSE      -0.167500
     22 F01         -4.7520   -14.9170    51.5290 f          1 XSE      -0.160000
     23 N01         -2.2220   -10.3690    50.2280 nu         1 XSE      -0.893800
     24 N02         -3.8580   -11.9580    49.6900 nb         1 XSE      -0.230000
     25 N03         -7.3570   -16.4890    47.7270 nd         1 XSE      -0.515100
     26 N04         -2.0940    -5.2910    46.3490 n          1 XSE      -0.408800
     27 N05         -3.7010    -2.9020    46.1360 n7         1 XSE      -0.843400
     28 N06         -2.5020   -12.1420    51.6370 nb         1 XSE      -0.206000
     29 N07         -1.4750    -8.4330    49.3060 nb         1 XSE      -0.739000
     30 O01         -1.8290    -7.0370    44.9160 o          1 XSE      -0.601100
     31 S01         -8.7770   -14.9170    46.2300 ss         1 XSE       0.027800
     32 H1          -5.9650   -11.4940    48.4530 ha         1 XSE       0.134000
     33 H2          -5.4170   -15.6440    49.4410 ha         1 XSE       0.146000
     34 H3          -3.5960    -8.8310    46.1200 ha         1 XSE       0.135000
     35 H4          -0.7690    -6.6800    48.5090 h4         1 XSE       0.026100
     36 H5          -3.7150   -10.5310    47.9240 ha         1 XSE       0.159000
     37 H7          -1.9370    -4.0580    48.0270 h1         1 XSE       0.061450
     38 H8          -4.3010    -3.3900    48.0790 h1         1 XSE       0.063700
     39 H9          -4.7040    -4.5860    46.8430 h1         1 XSE       0.063700
     40 H10         -2.8160    -2.7210    44.2490 h1         1 XSE       0.063700
     41 H11         -3.7870    -4.1760    44.4890 h1         1 XSE       0.063700
     42 H12         -2.8520   -13.7820    52.8540 h4         1 XSE       0.046100
     43 H13         -8.7900   -17.3720    46.4760 h5         1 XSE       0.062800
     44 H14         -1.4120    -4.8170    44.4390 h1         1 XSE       0.061450
     45 H15         -1.0380    -3.6220    45.6980 h1         1 XSE       0.061450
     46 H16         -7.7700   -12.0700    46.8750 ha         1 XSE       0.130000
     47 H17         -1.5470   -10.1050    50.9320 hn         1 XSE       0.530000
     48 H18         -3.1000    -2.1680    46.4990 hn         1 XSE       0.403000
     49 H6          -2.9500    -5.4890    48.2580 h1         1 XSE       0.061450
@<TRIPOS>BOND
     1     1    20 ar  
     2     1    21 ar  
     3     1    32 1   
     4     2    19 ar  
     5     2    21 ar  
     6     2    33 1   
     7     3     8 ar  
     8     3    23 1   
     9     3    29 ar  
    10     4     5 ar  
    11     4     8 ar  
    12     4    34 1   
    13     5     6 ar  
    14     5     7 1   
    15     6    29 ar  
    16     6    35 1   
    17     7    26 1   
    18     7    30 2   
    19     8    36 1   
    20     9    10 1   
    21     9    26 1   
    22     9    37 1   
    23     9    49 1   
    24    10    27 1   
    25    10    38 1   
    26    10    39 1   
    27    11    17 1   
    28    11    27 1   
    29    11    40 1   
    30    11    41 1   
    31    12    13 ar  
    32    12    21 1   
    33    12    24 ar  
    34    13    14 ar  
    35    13    22 1   
    36    14    28 ar  
    37    14    42 1   
    38    15    23 1   
    39    15    24 ar  
    40    15    28 ar  
    41    16    25 2   
    42    16    31 1   
    43    16    43 1   
    44    17    26 1   
    45    17    44 1   
    46    17    45 1   
    47    18    19 ar  
    48    18    20 ar  
    49    18    31 1   
    50    19    25 1   
    51    20    46 1   
    52    23    47 1   
    53    27    48 1   
@<TRIPOS>SUBSTRUCTURE
     1 XSE         1 TEMP              0 ****  ****    0 ROOT
