@<TRIPOS>MOLECULE
XSE
   49    53     1     0     0
SMALL
No Charge or Current Charge


@<TRIPOS>ATOM
      1 C10         -6.5380   -12.7930    48.4100 ca         1 XSE      -0.058000
      2 C12         -5.9000   -15.0840    48.9590 ca         1 XSE      -0.014000
      3 C13         -2.4530    -9.4970    48.9320 ca         1 XSE       0.620900
      4 C14         -3.0840    -8.7200    46.7390 ca         1 XSE      -0.006000
      5 C15         -2.3400    -7.5550    47.0040 ca         1 XSE      -0.233600
      6 C16         -1.6570    -7.4640    48.2290 ca         1 XSE       0.401900
      7 C17         -2.2110    -6.4800    45.9650 c          1 XSE       0.624700
      8 C18         -3.1450    -9.7090    47.7310 ca         1 XSE      -0.190000
      9 C19         -2.6310    -4.5590    47.5790 c6         1 XSE       0.058500
     10 C20         -3.7530    -3.5540    47.1860 c6         1 XSE       0.126300
     11 C21         -2.6510    -3.1290    45.0290 c6         1 XSE       0.126300
     12 C01         -4.6000   -13.1600    50.0210 cp         1 XSE       0.206500
     13 C02         -4.1920   -13.7770    51.2350 ca         1 XSE       0.014000
     14 C03         -3.1570   -13.1730    51.9690 ca         1 XSE       0.123900
     15 C04         -3.0150   -11.5170    50.3930 ca         1 XSE       0.384900
     16 C05         -8.2130   -16.9760    47.0390 cc         1 XSE       0.391100
     17 C06         -1.5090    -4.1100    45.4110 c6         1 XSE       0.058500
     18 C07         -7.7250   -14.6610    47.4410 ca         1 XSE      -0.163000
     19 C08         -6.9200   -15.5560    48.1140 ca         1 XSE       0.074400
     20 C09         -7.5560   -13.2760    47.5680 ca         1 XSE      -0.083000
     21 C11         -5.6910   -13.6860    49.1310 cp         1 XSE      -0.167500
     22 F01         -4.7880   -14.8930    51.7170 f          1 XSE      -0.160000
     23 N01         -2.3880   -10.3460    49.9990 nu         1 XSE      -0.893800
     24 N02         -4.0010   -12.0170    49.6260 nb         1 XSE      -0.230000
     25 N03         -7.1810   -16.9040    47.8960 nd         1 XSE      -0.515100
     26 N04         -1.9570    -5.1530    46.3810 n          1 XSE      -0.408800
     27 N05         -3.2700    -2.5170    46.2350 n7         1 XSE      -0.843400
     28 N06         -2.5620   -12.0390    51.5460 nb         1 XSE      -0.206000
     29 N07         -1.7150    -8.4190    49.1840 nb         1 XSE      -0.739000
     30 O01         -2.2390    -6.7710    44.7760 o          1 XSE      -0.601100
     31 S01         -8.9280   -15.4610    46.4440 ss         1 XSE       0.027800
     32 H1          -6.4110   -11.7170    48.5120 ha         1 XSE       0.134000
     33 H2          -5.2640   -15.8070    49.4610 ha         1 XSE       0.146000
     34 H3          -3.6060    -8.8540    45.7920 ha         1 XSE       0.135000
     35 H4          -1.0240    -6.6070    48.4590 h4         1 XSE       0.026100
     36 H5          -3.7070   -10.6160    47.5530 ha         1 XSE       0.159000
     37 H7          -1.8780    -4.0420    48.1900 h1         1 XSE       0.061450
     38 H8          -4.1510    -3.0750    48.0930 h1         1 XSE       0.063700
     39 H9          -4.5820    -4.1130    46.7230 h1         1 XSE       0.063700
     40 H10         -2.2550    -2.3420    44.3700 h1         1 XSE       0.063700
     41 H11         -3.4180    -3.6780    44.4600 h1         1 XSE       0.063700
     42 H12         -2.8040   -13.5950    52.9090 h4         1 XSE       0.046100
     43 H13         -8.6350   -17.9080    46.6880 h5         1 XSE       0.062800
     44 H14         -1.1060    -4.5740    44.5000 h1         1 XSE       0.061450
     45 H15         -0.6850    -3.5410    45.8650 h1         1 XSE       0.061450
     46 H16         -8.2000   -12.5850    47.0270 ha         1 XSE       0.130000
     47 H17         -1.7350    -9.9770    50.6820 hn         1 XSE       0.530000
     48 H18         -2.5550    -1.9510    46.7110 hn         1 XSE       0.403000
     49 H6          -3.0840    -5.3370    48.2070 h1         1 XSE       0.061450
@<TRIPOS>BOND
     1     1    20 ar  
     2     1    21 ar  
     3     1    32 1   
     4     2    19 ar  
     5     2    21 ar  
     6     2    33 1   
     7     3     8 ar  
     8     3    23 1   
     9     3    29 ar  
    10     4     5 ar  
    11     4     8 ar  
    12     4    34 1   
    13     5     6 ar  
    14     5     7 1   
    15     6    29 ar  
    16     6    35 1   
    17     7    26 1   
    18     7    30 2   
    19     8    36 1   
    20     9    10 1   
    21     9    26 1   
    22     9    37 1   
    23     9    49 1   
    24    10    27 1   
    25    10    38 1   
    26    10    39 1   
    27    11    17 1   
    28    11    27 1   
    29    11    40 1   
    30    11    41 1   
    31    12    13 ar  
    32    12    21 1   
    33    12    24 ar  
    34    13    14 ar  
    35    13    22 1   
    36    14    28 ar  
    37    14    42 1   
    38    15    23 1   
    39    15    24 ar  
    40    15    28 ar  
    41    16    25 2   
    42    16    31 1   
    43    16    43 1   
    44    17    26 1   
    45    17    44 1   
    46    17    45 1   
    47    18    19 ar  
    48    18    20 ar  
    49    18    31 1   
    50    19    25 1   
    51    20    46 1   
    52    23    47 1   
    53    27    48 1   
@<TRIPOS>SUBSTRUCTURE
     1 XSE         1 TEMP              0 ****  ****    0 ROOT
