@<TRIPOS>MOLECULE
XSG
   53    57     1     0     0
SMALL
bcc


@<TRIPOS>ATOM
      1 C13         17.1720   -49.6230    47.6570 c3         1 XSG       0.154800
      2 C18         18.7250   -50.1990    50.1540 ca         1 XSG      -0.090300
      3 C17         19.1100   -51.4920    49.8220 ca         1 XSG      -0.085300
      4 C16         19.8150   -51.5180    48.4940 c5         1 XSG      -0.032100
      5 C15         20.1190   -50.0350    48.2260 c5         1 XSG      -0.112400
      6 C19         18.0230   -49.9460    51.3230 ca         1 XSG      -0.094000
      7 C20         17.7230   -51.0040    52.1720 ca         1 XSG      -0.137000
      8 C21         18.1140   -52.3000    51.8450 ca         1 XSG      -0.125000
      9 C22         18.8080   -52.5510    50.6660 ca         1 XSG      -0.121000
     10 C11         16.0980   -50.0810    44.1060 ca         1 XSG      -0.114500
     11 C12         15.9560   -48.9530    47.0350 c3         1 XSG      -0.072400
     12 C1          12.2950   -47.5580    45.0780 ca         1 XSG       0.718200
     13 N           11.2330   -48.3250    44.8710 nb         1 XSG      -0.765000
     14 C2          11.4350   -49.6030    45.1740 ca         1 XSG       0.459800
     15 N4          10.5780   -50.6400    45.0970 na         1 XSG      -0.130800
     16 N3          11.1610   -51.7700    45.5050 nc         1 XSG      -0.175400
     17 N2          12.3680   -51.5160    45.8460 nd         1 XSG      -0.201400
     18 C3          12.5970   -50.1890    45.6620 ca         1 XSG      -0.144900
     19 C4          13.7250   -49.3720    45.8840 ca         1 XSG       0.090700
     20 C           13.5450   -48.0490    45.5860 ca         1 XSG      -0.333300
     21 C5          15.0120   -49.9700    46.3880 c3         1 XSG       0.024900
     22 C6          15.6820   -50.7370    45.2630 ca         1 XSG      -0.075300
     23 C10         16.7330   -50.7760    43.0880 ca         1 XSG      -0.130500
     24 C9          16.9600   -52.1420    43.2090 ca         1 XSG      -0.127000
     25 C8          16.5460   -52.8040    44.3560 ca         1 XSG      -0.130500
     26 C7          15.9100   -52.1050    45.3740 ca         1 XSG      -0.114500
     27 N1          17.9520   -48.6640    48.4180 n7         1 XSG      -0.802200
     28 C14         19.1250   -49.2110    49.0860 c5         1 XSG       0.219800
     29 H1          16.8310   -50.4120    48.3350 h1         1 XSG       0.042200
     30 H2          17.7540   -50.1230    46.8700 h1         1 XSG       0.042200
     31 H3          19.1640   -51.9480    47.7260 hc         1 XSG       0.053700
     32 H4          20.7180   -52.1310    48.5120 hc         1 XSG       0.053700
     33 H5          21.1350   -49.8110    48.5570 hc         1 XSG       0.047700
     34 H6          20.0640   -49.7730    47.1680 hc         1 XSG       0.047700
     35 H7          17.7160   -48.9380    51.5750 ha         1 XSG       0.138000
     36 H8          17.1840   -50.8220    53.0930 ha         1 XSG       0.129000
     37 H9          17.8780   -53.1170    52.5150 ha         1 XSG       0.129000
     38 H10         19.1050   -53.5620    50.4150 ha         1 XSG       0.131000
     39 H11         15.9230   -49.0170    43.9950 ha         1 XSG       0.132500
     40 H12         16.2850   -48.2140    46.2980 hc         1 XSG       0.047200
     41 H13         15.4160   -48.4070    47.8130 hc         1 XSG       0.047200
     42 H14         11.2810   -45.8710    44.5700 hn         1 XSG       0.434300
     43 H15         12.8890   -45.6000    45.0840 hn         1 XSG       0.434300
     44 H17         14.3460   -47.3350    45.7250 ha         1 XSG       0.142000
     45 H18         14.7410   -50.6990    47.1590 hc         1 XSG       0.082700
     46 H19         17.0520   -50.2520    42.1960 ha         1 XSG       0.129500
     47 H20         17.4550   -52.6850    42.4150 ha         1 XSG       0.129000
     48 H21         16.7160   -53.8680    44.4610 ha         1 XSG       0.129500
     49 H22         15.5900   -52.6280    46.2670 ha         1 XSG       0.132500
     50 H23         18.2540   -47.9190    47.8000 hn         1 XSG       0.349800
     51 H25         19.6410   -48.3540    49.5270 h1         1 XSG       0.065700
     52 H16          9.6160   -50.6510    44.7910 hn         1 XSG       0.336700
     53 N5          12.1930   -46.2500    44.7630 nv         1 XSG      -0.962500
@<TRIPOS>BOND
     1     1    11 1   
     2     1    27 1   
     3     1    29 1   
     4     1    30 1   
     5     2     3 ar  
     6     2     6 ar  
     7     2    28 1   
     8     3     4 1   
     9     3     9 ar  
    10     4     5 1   
    11     4    31 1   
    12     4    32 1   
    13     5    28 1   
    14     5    33 1   
    15     5    34 1   
    16     6     7 ar  
    17     6    35 1   
    18     7     8 ar  
    19     7    36 1   
    20     8     9 ar  
    21     8    37 1   
    22     9    38 1   
    23    10    22 ar  
    24    10    23 ar  
    25    10    39 1   
    26    11    21 1   
    27    11    40 1   
    28    11    41 1   
    29    12    13 ar  
    30    12    20 ar  
    31    12    53 1   
    32    13    14 ar  
    33    14    15 1   
    34    14    18 ar  
    35    15    16 1   
    36    15    52 1   
    37    16    17 2   
    38    17    18 1   
    39    18    19 ar  
    40    19    20 ar  
    41    19    21 1   
    42    20    44 1   
    43    21    22 1   
    44    21    45 1   
    45    22    26 ar  
    46    23    24 ar  
    47    23    46 1   
    48    24    25 ar  
    49    24    47 1   
    50    25    26 ar  
    51    25    48 1   
    52    26    49 1   
    53    27    28 1   
    54    27    50 1   
    55    28    51 1   
    56    42    53 1   
    57    43    53 1   
@<TRIPOS>SUBSTRUCTURE
     1 XSG         1 TEMP              0 ****  ****    0 ROOT
