@<TRIPOS>MOLECULE
XSG
   53    57     1     0     0
SMALL
No Charge or Current Charge


@<TRIPOS>ATOM
      1 C13         17.0860   -49.6270    47.7710 c3         1 XSG       0.154800
      2 C18         18.7430   -50.2340    50.2090 ca         1 XSG      -0.090300
      3 C17         19.2090   -51.4580    49.7660 ca         1 XSG      -0.085300
      4 C16         19.9240   -51.3630    48.4440 c5         1 XSG      -0.032100
      5 C15         20.1400   -49.8030    48.3140 c5         1 XSG      -0.112400
      6 C19         18.0320   -50.1280    51.4160 ca         1 XSG      -0.076000
      7 C20         17.8000   -51.2900    52.1770 ca         1 XSG      -0.119000
      8 C21         18.2760   -52.5390    51.7240 ca         1 XSG      -0.107000
      9 C22         18.9840   -52.6280    50.5100 ca         1 XSG      -0.103000
     10 C11         16.1700   -50.1280    44.1360 ca         1 XSG      -0.096500
     11 C12         15.9030   -48.9410    47.0590 c3         1 XSG      -0.072400
     12 C1          12.3730   -47.5200    44.8390 ca         1 XSG       0.652900
     13 N           11.2520   -48.2230    44.7490 nb         1 XSG      -0.765000
     14 C2          11.3380   -49.4940    45.1860 ca         1 XSG       0.394500
     15 N4          10.4090   -50.4860    45.2370 na         1 XSG      -0.181100
     16 N3          10.9700   -51.6400    45.7730 nc         1 XSG      -0.175400
     17 N2          12.2400   -51.3840    46.0600 nd         1 XSG      -0.201400
     18 C3          12.4720   -50.0620    45.7020 ca         1 XSG      -0.079600
     19 C4          13.6640   -49.3210    45.8100 ca         1 XSG       0.090700
     20 C           13.5910   -47.9880    45.3480 ca         1 XSG      -0.250000
     21 C5          14.9450   -49.9530    46.3730 c3         1 XSG       0.024900
     22 C6          15.6600   -50.7630    45.2880 ca         1 XSG      -0.075300
     23 C10         16.8330   -50.8750    43.1470 ca         1 XSG      -0.112500
     24 C9          16.9910   -52.2630    43.3000 ca         1 XSG      -0.109000
     25 C8          16.4840   -52.9020    44.4430 ca         1 XSG      -0.112500
     26 C7          15.8210   -52.1560    45.4320 ca         1 XSG      -0.096500
     27 N1          17.9280   -48.6200    48.4540 n7         1 XSG      -0.857400
     28 C14         19.0820   -49.1070    49.2640 c5         1 XSG       0.219800
     29 H1          16.6900   -50.3540    48.4930 h1         1 XSG       0.042200
     30 H2          17.6740   -50.1800    47.0260 h1         1 XSG       0.042200
     31 H3          19.3080   -51.7580    47.6280 hc         1 XSG       0.053700
     32 H4          20.8730   -51.9110    48.4330 hc         1 XSG       0.053700
     33 H5          21.1490   -49.5490    48.6590 hc         1 XSG       0.047700
     34 H6          20.0840   -49.4590    47.2750 hc         1 XSG       0.047700
     35 H7          17.6650   -49.1620    51.7550 ha         1 XSG       0.120000
     36 H8          17.2520   -51.2250    53.1140 ha         1 XSG       0.111000
     37 H9          18.0930   -53.4350    52.3130 ha         1 XSG       0.111000
     38 H10         19.3480   -53.5880    50.1530 ha         1 XSG       0.113000
     39 H11         16.0540   -49.0550    44.0040 ha         1 XSG       0.114500
     40 H12         16.3000   -48.2350    46.3200 hc         1 XSG       0.047200
     41 H13         15.3350   -48.3570    47.7940 hc         1 XSG       0.047200
     42 H14         11.2160   -46.0260    44.2820 hn         1 XSG       0.489500
     43 H15         12.8070   -45.5620    44.7410 hn         1 XSG       0.489500
     44 H17         14.4500   -47.3280    45.3700 ha         1 XSG       0.124000
     45 H18         14.6330   -50.6400    47.1690 hc         1 XSG       0.082700
     46 H19         17.2230   -50.3780    42.2610 ha         1 XSG       0.111500
     47 H20         17.5040   -52.8400    42.5340 ha         1 XSG       0.111000
     48 H21         16.6050   -53.9770    44.5630 ha         1 XSG       0.111500
     49 H22         15.4340   -52.6650    46.3120 ha         1 XSG       0.114500
     50 H23         18.2730   -47.9550    47.7530 hn         1 XSG       0.405000
     51 H25         19.5430   -48.2690    49.8080 h1         1 XSG       0.065700
     52 H16          9.4450   -50.4300    44.9380 hn         1 XSG       0.387000
     53 N5          12.1890   -46.2830    44.3860 nv         1 XSG      -1.072900
@<TRIPOS>BOND
     1     1    11 1   
     2     1    27 1   
     3     1    29 1   
     4     1    30 1   
     5     2     3 ar  
     6     2     6 ar  
     7     2    28 1   
     8     3     4 1   
     9     3     9 ar  
    10     4     5 1   
    11     4    31 1   
    12     4    32 1   
    13     5    28 1   
    14     5    33 1   
    15     5    34 1   
    16     6     7 ar  
    17     6    35 1   
    18     7     8 ar  
    19     7    36 1   
    20     8     9 ar  
    21     8    37 1   
    22     9    38 1   
    23    10    22 ar  
    24    10    23 ar  
    25    10    39 1   
    26    11    21 1   
    27    11    40 1   
    28    11    41 1   
    29    12    13 ar  
    30    12    20 ar  
    31    12    53 1   
    32    13    14 ar  
    33    14    15 1   
    34    14    18 ar  
    35    15    16 1   
    36    15    52 1   
    37    16    17 2   
    38    17    18 1   
    39    18    19 ar  
    40    19    20 ar  
    41    19    21 1   
    42    20    44 1   
    43    21    22 1   
    44    21    45 1   
    45    22    26 ar  
    46    23    24 ar  
    47    23    46 1   
    48    24    25 ar  
    49    24    47 1   
    50    25    26 ar  
    51    25    48 1   
    52    26    49 1   
    53    27    28 1   
    54    27    50 1   
    55    28    51 1   
    56    42    53 1   
    57    43    53 1   
@<TRIPOS>SUBSTRUCTURE
     1 XSG         1 TEMP              0 ****  ****    0 ROOT
