@<TRIPOS>MOLECULE
XSI
   54    56     1     0     0
SMALL
abcg2


@<TRIPOS>ATOM
      1 C12        -25.1190    10.5540    33.6610 ca         1 XSI       0.311500
      2 C14        -25.8120     9.9590    32.6130 ca         1 XSI      -0.115000
      3 C15        -26.9090    11.8940    34.1650 ca         1 XSI       0.334900
      4 C16        -27.1040    10.3790    32.3460 ca         1 XSI      -0.087000
      5 C21        -20.8300    11.2730    34.1560 c3         1 XSI      -0.057400
      6 C22        -19.3470    10.9470    34.1830 c3         1 XSI      -0.184400
      7 C17        -23.7030    10.1270    33.9470 c          1 XSI       0.476600
      8 C23        -18.5600    11.4450    32.9590 c          1 XSI       0.721000
      9 N13        -25.6610    11.5080    34.4260 nb         1 XSI      -0.637000
     10 C20        -21.6870    10.6420    35.2680 c3         1 XSI      -0.033300
     11 C02        -22.1960    11.7370    30.5170 cc         1 XSI       0.752800
     12 C04        -22.6390    13.7190    31.8720 c          1 XSI       0.607600
     13 C05        -25.0760    14.5270    31.5560 cc         1 XSI      -0.013000
     14 C06        -26.1860    14.1910    30.8470 cd         1 XSI      -0.268300
     15 C08        -23.9650    13.6610    31.3230 cc         1 XSI      -0.321600
     16 C09        -24.2490    12.6400    30.4180 cd         1 XSI       0.193400
     17 C26        -21.4250    11.3000    36.6440 c          1 XSI       0.714000
     18 C29        -27.5340    14.8420    30.9030 c3         1 XSI       0.019900
     19 C30        -28.4470    14.2470    31.9910 c3         1 XSI      -0.074400
     20 C31        -29.0500    12.8760    31.6400 c3         1 XSI      -0.070400
     21 C33        -27.6860    11.3730    33.1300 ca         1 XSI      -0.147300
     22 N01        -23.4100    11.6670    30.0050 nd         1 XSI      -0.745100
     23 N03        -21.8070    12.7180    31.3850 ns         1 XSI      -0.433400
     24 N19        -23.0910    10.7990    34.9240 ns         1 XSI      -0.422900
     25 O18        -23.1730     9.2180    33.2950 o          1 XSI      -0.670100
     26 O24        -19.2070    11.9120    31.9680 o          1 XSI      -0.773000
     27 O25        -17.3150    11.3410    33.0070 o          1 XSI      -0.773000
     28 S07        -25.8890    12.7720    29.8550 ss         1 XSI       0.085000
     29 H1         -25.3310     9.1930    32.0220 ha         1 XSI       0.145000
     30 H2         -27.3200    12.6630    34.8120 h4         1 XSI       0.006100
     31 H3         -27.6600     9.9440    31.5250 ha         1 XSI       0.100000
     32 H4         -20.9830    12.3550    34.1790 hc         1 XSI       0.030700
     33 H5         -21.2400    10.9150    33.2150 hc         1 XSI       0.030700
     34 H6         -18.8650    11.3440    35.0760 hc         1 XSI       0.045200
     35 H7         -19.2050     9.8610    34.2250 hc         1 XSI       0.045200
     36 H8         -21.5290    10.0130    29.6840 hn         1 XSI       0.524000
     37 H9         -20.3790    10.8430    30.7090 hn         1 XSI       0.524000
     38 H10        -21.4570     9.5780    35.3390 h1         1 XSI       0.049700
     39 H11        -25.0450    15.3710    32.2320 ha         1 XSI       0.132000
     40 H12        -27.3770    15.9020    31.1150 hc         1 XSI       0.031700
     41 H13        -28.0310    14.7850    29.9310 hc         1 XSI       0.031700
     42 H14        -27.8630    14.1780    32.9100 hc         1 XSI       0.037200
     43 H15        -29.2550    14.9540    32.1930 hc         1 XSI       0.037200
     44 H16        -30.0710    13.0080    31.2760 hc         1 XSI       0.035200
     45 H17        -28.4930    12.4140    30.8230 hc         1 XSI       0.035200
     46 H18        -29.4840    12.3810    33.7060 hc         1 XSI       0.032700
     47 H19        -29.7140    11.0480    32.5800 hc         1 XSI       0.032700
     48 H20        -20.8510    12.6360    31.7660 hn         1 XSI       0.417500
     49 H21        -23.5910    11.5330    35.4070 hn         1 XSI       0.357500
     50 C32        -29.0640    11.8910    32.8240 c3         1 XSI      -0.016100
     51 O27        -22.2530    12.1640    37.0310 o          1 XSI      -0.735000
     52 N11        -21.2480    10.8390    30.1850 nv         1 XSI      -1.037200
     53 O28        -20.3880    10.9320    37.2450 o          1 XSI      -0.735000
     54 O10        -22.2100    14.5400    32.6890 o          1 XSI      -0.548000
@<TRIPOS>BOND
     1     1     2 ar  
     2     1     7 1   
     3     1     9 ar  
     4     2     4 ar  
     5     2    29 1   
     6     3     9 ar  
     7     3    21 ar  
     8     3    30 1   
     9     4    21 ar  
    10     4    31 1   
    11     5     6 1   
    12     5    10 1   
    13     5    32 1   
    14     5    33 1   
    15     6     8 1   
    16     6    34 1   
    17     6    35 1   
    18     7    24 1   
    19     7    25 2   
    20     8    26 1   
    21     8    27 1   
    22    10    17 1   
    23    10    24 1   
    24    10    38 1   
    25    11    22 2   
    26    11    23 1   
    27    11    52 1   
    28    12    15 1   
    29    12    23 1   
    30    12    54 2   
    31    13    14 2   
    32    13    15 1   
    33    13    39 1   
    34    14    18 1   
    35    14    28 1   
    36    15    16 2   
    37    16    22 1   
    38    16    28 1   
    39    17    51 1   
    40    17    53 1   
    41    18    19 1   
    42    18    40 1   
    43    18    41 1   
    44    19    20 1   
    45    19    42 1   
    46    19    43 1   
    47    20    44 1   
    48    20    45 1   
    49    20    50 1   
    50    21    50 1   
    51    23    48 1   
    52    24    49 1   
    53    36    52 1   
    54    37    52 1   
    55    46    50 1   
    56    47    50 1   
@<TRIPOS>SUBSTRUCTURE
     1 XSI         1 TEMP              0 ****  ****    0 ROOT
