@<TRIPOS>MOLECULE
XSI
   54    56     1     0     0
SMALL
No Charge or Current Charge


@<TRIPOS>ATOM
      1 C12        -25.3810    10.2130    34.0810 ca         1 XSI       0.311500
      2 C14        -26.1540     9.5810    33.0840 ca         1 XSI      -0.115000
      3 C15        -27.0200    11.8530    34.3630 ca         1 XSI       0.334900
      4 C16        -27.3870    10.1310    32.7060 ca         1 XSI      -0.087000
      5 C21        -21.1200    11.0590    34.1220 c3         1 XSI      -0.057400
      6 C22        -19.5730    11.0280    34.0730 c3         1 XSI      -0.184400
      7 C17        -23.9780     9.6840    34.3990 c          1 XSI       0.476600
      8 C23        -19.1070    11.4940    32.6890 c          1 XSI       0.721000
      9 N13        -25.8250    11.3350    34.7240 nb         1 XSI      -0.637000
     10 C20        -21.7630    10.4390    35.3900 c3         1 XSI      -0.033300
     11 C02        -21.7950    12.1850    30.2060 cc         1 XSI       0.752800
     12 C04        -22.3760    13.9260    31.6940 c          1 XSI       0.607600
     13 C05        -24.8360    14.5490    31.4330 cc         1 XSI      -0.013000
     14 C06        -25.9650    14.2230    30.7190 cd         1 XSI      -0.268300
     15 C08        -23.6940    13.7760    31.0870 cc         1 XSI      -0.321600
     16 C09        -23.9530    12.8580    30.1080 cd         1 XSI       0.193400
     17 C26        -21.3190    11.1530    36.7040 c          1 XSI       0.714000
     18 C29        -27.3330    14.8490    30.8450 c3         1 XSI       0.019900
     19 C30        -28.1500    14.2410    32.0050 c3         1 XSI      -0.074400
     20 C31        -28.8370    12.8940    31.6610 c3         1 XSI      -0.070400
     21 C33        -27.8240    11.3020    33.3460 ca         1 XSI      -0.147300
     22 N01        -22.9570    12.0090    29.6250 nd         1 XSI      -0.745100
     23 N03        -21.4900    13.0660    31.1690 ns         1 XSI      -0.433400
     24 N19        -23.2370    10.4750    35.2580 ns         1 XSI      -0.422900
     25 O18        -23.5100     8.6600    33.9060 o          1 XSI      -0.670100
     26 O24        -19.0290    10.6640    31.7980 o          1 XSI      -0.773000
     27 O25        -19.0450    12.6930    32.4730 o          1 XSI      -0.773000
     28 S07        -25.6400    12.9080    29.5610 ss         1 XSI       0.085000
     29 H1         -25.7770     8.6940    32.5810 ha         1 XSI       0.145000
     30 H2         -27.3240    12.7600    34.8840 h4         1 XSI       0.006100
     31 H3         -27.9740     9.6750    31.9110 ha         1 XSI       0.100000
     32 H4         -21.4580    12.0990    34.0250 hc         1 XSI       0.030700
     33 H5         -21.5010    10.5270    33.2410 hc         1 XSI       0.030700
     34 H6         -19.2250    11.7250    34.8450 hc         1 XSI       0.045200
     35 H7         -19.2700     9.9890    34.2470 hc         1 XSI       0.045200
     36 H8         -21.1570    10.6530    29.2090 hn         1 XSI       0.524000
     37 H9         -20.1210    11.1410    30.4780 hn         1 XSI       0.524000
     38 H10        -21.4530     9.3890    35.4650 h1         1 XSI       0.049700
     39 H11        -24.8050    15.3230    32.1950 ha         1 XSI       0.132000
     40 H12        -27.2180    15.9250    31.0270 hc         1 XSI       0.031700
     41 H13        -27.8940    14.7570    29.9070 hc         1 XSI       0.031700
     42 H14        -27.4870    14.1260    32.8700 hc         1 XSI       0.037200
     43 H15        -28.9260    14.9540    32.3100 hc         1 XSI       0.037200
     44 H16        -29.7880    13.1070    31.1580 hc         1 XSI       0.035200
     45 H17        -28.2290    12.3320    30.9420 hc         1 XSI       0.035200
     46 H18        -29.5410    12.5900    33.7000 hc         1 XSI       0.032700
     47 H19        -29.8530    11.2410    32.6210 hc         1 XSI       0.032700
     48 H20        -20.5490    13.0890    31.5460 hn         1 XSI       0.417500
     49 H21        -23.7260    11.2860    35.6300 hn         1 XSI       0.357500
     50 C32        -29.1020    11.9940    32.8900 c3         1 XSI      -0.016100
     51 O27        -21.8150    12.2400    36.9740 o          1 XSI      -0.735000
     52 N11        -20.8190    11.4150    29.7790 nv         1 XSI      -1.037200
     53 O28        -20.5890    10.5450    37.4750 o          1 XSI      -0.735000
     54 O10        -22.0840    14.7270    32.5670 o          1 XSI      -0.548000
@<TRIPOS>BOND
     1     1     2 ar  
     2     1     7 1   
     3     1     9 ar  
     4     2     4 ar  
     5     2    29 1   
     6     3     9 ar  
     7     3    21 ar  
     8     3    30 1   
     9     4    21 ar  
    10     4    31 1   
    11     5     6 1   
    12     5    10 1   
    13     5    32 1   
    14     5    33 1   
    15     6     8 1   
    16     6    34 1   
    17     6    35 1   
    18     7    24 1   
    19     7    25 2   
    20     8    26 1   
    21     8    27 1   
    22    10    17 1   
    23    10    24 1   
    24    10    38 1   
    25    11    22 2   
    26    11    23 1   
    27    11    52 1   
    28    12    15 1   
    29    12    23 1   
    30    12    54 2   
    31    13    14 2   
    32    13    15 1   
    33    13    39 1   
    34    14    18 1   
    35    14    28 1   
    36    15    16 2   
    37    16    22 1   
    38    16    28 1   
    39    17    51 1   
    40    17    53 1   
    41    18    19 1   
    42    18    40 1   
    43    18    41 1   
    44    19    20 1   
    45    19    42 1   
    46    19    43 1   
    47    20    44 1   
    48    20    45 1   
    49    20    50 1   
    50    21    50 1   
    51    23    48 1   
    52    24    49 1   
    53    36    52 1   
    54    37    52 1   
    55    46    50 1   
    56    47    50 1   
@<TRIPOS>SUBSTRUCTURE
     1 XSI         1 TEMP              0 ****  ****    0 ROOT
