@<TRIPOS>MOLECULE
XSL
   39    40     1     0     0
SMALL
No Charge or Current Charge


@<TRIPOS>ATOM
      1 O1          23.0880    11.0060    27.0360 o          1 XSL      -0.729100
      2 C14         27.0830    11.1890    21.0490 ca         1 XSL      -0.095000
      3 C15         25.9070    11.8790    20.7180 ca         1 XSL      -0.180000
      4 C16         25.0780    12.3900    21.7300 ca         1 XSL       0.216000
      5 C13         27.4240    11.0090    22.3980 ca         1 XSL      -0.156000
      6 C12         26.5980    11.5180    23.4150 ca         1 XSL      -0.058000
      7 C11         25.4120    12.2220    23.0950 ca         1 XSL      -0.174300
      8 C10         24.5010    12.7730    24.2040 c3         1 XSL       0.215300
      9 C1          22.3490    11.9280    26.7040 c          1 XSL       0.555100
     10 C3          22.2390    14.9230    27.2520 ca         1 XSL       0.145100
     11 C2          21.4120    12.6450    27.7110 c3         1 XSL       0.099600
     12 N1          22.2940    12.3740    25.4000 ns         1 XSL      -0.495900
     13 C4          23.3020    14.8970    28.1800 ca         1 XSL      -0.202000
     14 C9          23.1920    11.9390    24.3180 c3         1 XSL       0.072000
     15 C8          22.2380    15.8690    26.2080 ca         1 XSL      -0.151500
     16 C7          23.3040    16.7880    26.1040 ca         1 XSL      -0.055000
     17 C6          24.3580    16.7600    27.0340 ca         1 XSL      -0.178000
     18 C5          24.3590    15.8150    28.0700 ca         1 XSL      -0.134000
     19 O2          21.1950    14.0270    27.3510 os         1 XSL      -0.320100
     20 P1          20.9010    15.8620    24.9520 p5         1 XSL       1.205000
     21 O3          19.6460    16.3550    25.5910 o          1 XSL      -0.884167
     22 O4          21.2710    16.7510    23.8120 o          1 XSL      -0.884167
     23 O5          20.7120    14.4550    24.4880 o          1 XSL      -0.884167
     24 F1          25.1260    12.7770    25.4060 f          1 XSL      -0.096500
     25 F2          24.1780    14.0660    23.9650 f          1 XSL      -0.096500
     26 H1          27.7250    10.7930    20.2650 ha         1 XSL       0.094000
     27 H2          25.6340    12.0190    19.6760 ha         1 XSL       0.120000
     28 H3          28.3330    10.4700    22.6590 ha         1 XSL       0.099000
     29 H4          26.8870    11.3550    24.4510 ha         1 XSL       0.131000
     30 H5          20.4550    12.1100    27.7030 h1         1 XSL       0.038200
     31 H6          21.8380    12.5580    28.7170 h1         1 XSL       0.038200
     32 H7          21.6450    13.1500    25.2040 hn         1 XSL       0.445500
     33 H8          23.3120    14.1800    28.9950 ha         1 XSL       0.077000
     34 H9          22.6390    12.0060    23.3730 h1         1 XSL       0.051700
     35 H10         23.4520    10.8830    24.4670 h1         1 XSL       0.051700
     36 H11         23.3200    17.5180    25.2980 ha         1 XSL       0.132000
     37 H12         25.1770    17.4700    26.9460 ha         1 XSL       0.066000
     38 H13         25.1750    15.7950    28.7880 ha         1 XSL       0.060000
     39 F3          23.9490    13.0410    21.3700 f          1 XSL      -0.137000
@<TRIPOS>BOND
     1     1     9 2   
     2     2     3 ar  
     3     2     5 ar  
     4     2    26 1   
     5     3     4 ar  
     6     3    27 1   
     7     4     7 ar  
     8     4    39 1   
     9     5     6 ar  
    10     5    28 1   
    11     6     7 ar  
    12     6    29 1   
    13     7     8 1   
    14     8    14 1   
    15     8    24 1   
    16     8    25 1   
    17     9    11 1   
    18     9    12 1   
    19    10    13 ar  
    20    10    15 ar  
    21    10    19 1   
    22    11    19 1   
    23    11    30 1   
    24    11    31 1   
    25    12    14 1   
    26    12    32 1   
    27    13    18 ar  
    28    13    33 1   
    29    14    34 1   
    30    14    35 1   
    31    15    16 ar  
    32    15    20 1   
    33    16    17 ar  
    34    16    36 1   
    35    17    18 ar  
    36    17    37 1   
    37    18    38 1   
    38    20    21 1   
    39    20    22 1   
    40    20    23 1   
@<TRIPOS>SUBSTRUCTURE
     1 XSL         1 TEMP              0 ****  ****    0 ROOT
