@<TRIPOS>MOLECULE
XSL
   39    40     1     0     0
SMALL
abcg2


@<TRIPOS>ATOM
      1 O1          23.1820    11.0510    26.9980 o          1 XSL      -0.729100
      2 C14         26.9300    11.0020    20.9100 ca         1 XSL      -0.095000
      3 C15         25.8110    11.7720    20.6310 ca         1 XSL      -0.180000
      4 C16         25.0960    12.3160    21.6790 ca         1 XSL       0.216000
      5 C13         27.3120    10.7840    22.2260 ca         1 XSL      -0.156000
      6 C12         26.5790    11.3410    23.2630 ca         1 XSL      -0.058000
      7 C11         25.4540    12.1220    23.0080 ca         1 XSL      -0.174300
      8 C10         24.6330    12.7000    24.1310 c3         1 XSL       0.215300
      9 C1          22.5290    12.0230    26.6280 c          1 XSL       0.555100
     10 C3          22.1830    14.9600    27.3170 ca         1 XSL       0.145100
     11 C2          21.5800    12.6830    27.6230 c3         1 XSL       0.099600
     12 N1          22.5210    12.5280    25.3940 ns         1 XSL      -0.495900
     13 C4          23.1070    15.0280    28.3560 ca         1 XSL      -0.202000
     14 C9          23.3230    11.9580    24.3520 c3         1 XSL       0.072000
     15 C8          22.1920    15.8830    26.2650 ca         1 XSL      -0.151500
     16 C7          23.1580    16.8870    26.3220 ca         1 XSL      -0.055000
     17 C6          24.0860    16.9770    27.3530 ca         1 XSL      -0.178000
     18 C5          24.0590    16.0390    28.3730 ca         1 XSL      -0.134000
     19 O2          21.2080    13.9990    27.3040 os         1 XSL      -0.320100
     20 P1          20.9810    15.8300    24.8400 p5         1 XSL       1.205000
     21 O3          19.6220    16.1740    25.4350 o          1 XSL      -0.884167
     22 O4          21.5240    16.8430    23.8350 o          1 XSL      -0.884167
     23 O5          21.0700    14.3690    24.3220 o          1 XSL      -0.884167
     24 F1          25.3600    12.6770    25.2850 f          1 XSL      -0.096500
     25 F2          24.3980    14.0230    23.8930 f          1 XSL      -0.096500
     26 H1          27.4970    10.5710    20.0960 ha         1 XSL       0.094000
     27 H2          25.4920    11.9520    19.6120 ha         1 XSL       0.120000
     28 H3          28.1820    10.1810    22.4480 ha         1 XSL       0.099000
     29 H4          26.8870    11.1590    24.2830 ha         1 XSL       0.131000
     30 H5          20.6550    12.1010    27.6380 h1         1 XSL       0.038200
     31 H6          22.0200    12.5920    28.6200 h1         1 XSL       0.038200
     32 H7          21.8770    13.3290    25.0720 hn         1 XSL       0.445500
     33 H8          23.0900    14.3120    29.1680 ha         1 XSL       0.077000
     34 H9          22.7560    11.9770    23.4190 h1         1 XSL       0.051700
     35 H10         23.5610    10.9130    24.5580 h1         1 XSL       0.051700
     36 H11         23.1910    17.6090    25.5160 ha         1 XSL       0.132000
     37 H12         24.8250    17.7680    27.3560 ha         1 XSL       0.066000
     38 H13         24.7720    16.0880    29.1860 ha         1 XSL       0.060000
     39 F3          24.0080    13.0440    21.3870 f          1 XSL      -0.137000
@<TRIPOS>BOND
     1     1     9 2   
     2     2     3 ar  
     3     2     5 ar  
     4     2    26 1   
     5     3     4 ar  
     6     3    27 1   
     7     4     7 ar  
     8     4    39 1   
     9     5     6 ar  
    10     5    28 1   
    11     6     7 ar  
    12     6    29 1   
    13     7     8 1   
    14     8    14 1   
    15     8    24 1   
    16     8    25 1   
    17     9    11 1   
    18     9    12 1   
    19    10    13 ar  
    20    10    15 ar  
    21    10    19 1   
    22    11    19 1   
    23    11    30 1   
    24    11    31 1   
    25    12    14 1   
    26    12    32 1   
    27    13    18 ar  
    28    13    33 1   
    29    14    34 1   
    30    14    35 1   
    31    15    16 ar  
    32    15    20 1   
    33    16    17 ar  
    34    16    36 1   
    35    17    18 ar  
    36    17    37 1   
    37    18    38 1   
    38    20    21 1   
    39    20    22 1   
    40    20    23 1   
@<TRIPOS>SUBSTRUCTURE
     1 XSL         1 TEMP              0 ****  ****    0 ROOT
