@<TRIPOS>MOLECULE
XSN
   16    15     1     0     0
SMALL
No Charge or Current Charge


@<TRIPOS>ATOM
      1 C            0.4530   -14.6840     0.5770 c          1 XSN       0.592100
      2 N            0.5860   -15.1700    -1.9920 n8         1 XSN      -0.978200
      3 O            0.2270   -13.4910     0.4250 o          1 XSN      -0.616100
      4 CA           0.8040   -15.6850    -0.6010 c3         1 XSN       0.114500
      5 CB           2.2380   -16.2750    -0.4790 c3         1 XSN      -0.212400
      6 CG           2.2640   -17.7150    -1.0060 c          1 XSN       0.723000
      7 OD1          1.9890   -18.6140    -0.2260 o          1 XSN      -0.739500
      8 OD2          2.5120   -17.8980    -2.1880 o          1 XSN      -0.739500
      9 N1           0.3850   -15.2160     1.8220 nt         1 XSN      -0.627000
     10 HN           0.7640   -15.9320    -2.6580 hn         1 XSN       0.397500
     11 HNA         -0.4090   -14.9500    -2.1210 hn         1 XSN       0.397500
     12 HA           0.1000   -16.5180    -0.4680 h1         1 XSN       0.023700
     13 HB           2.9060   -15.6290    -1.0630 hc         1 XSN       0.034700
     14 HBA          2.4830   -16.2870     0.5890 hc         1 XSN       0.034700
     15 HN1          0.1590   -14.6190     2.6040 hn         1 XSN       0.298000
     16 HN1A         0.5660   -16.2000     1.9600 hn         1 XSN       0.298000
@<TRIPOS>BOND
     1     1     3 2   
     2     1     4 1   
     3     1     9 1   
     4     2     4 1   
     5     2    10 1   
     6     2    11 1   
     7     4     5 1   
     8     4    12 1   
     9     5     6 1   
    10     5    13 1   
    11     5    14 1   
    12     6     7 1   
    13     6     8 1   
    14     9    15 1   
    15     9    16 1   
@<TRIPOS>SUBSTRUCTURE
     1 XSN         1 TEMP              0 ****  ****    0 ROOT
