@<TRIPOS>MOLECULE
XSN
   16    15     1     0     0
SMALL
abcg2


@<TRIPOS>ATOM
      1 C            0.5390   -14.6800     0.4890 c          1 XSN       0.592100
      2 N            0.2130   -15.5110    -1.7760 n8         1 XSN      -0.978200
      3 O            0.5410   -13.5210     0.1030 o          1 XSN      -0.616100
      4 CA           0.6800   -15.8720    -0.4510 c3         1 XSN       0.114500
      5 CB           2.1550   -16.2690    -0.5100 c3         1 XSN      -0.212400
      6 CG           2.4710   -17.5420    -1.3280 c          1 XSN       0.723000
      7 OD1          1.5110   -18.2450    -1.7050 o          1 XSN      -0.739500
      8 OD2          3.6810   -17.7650    -1.5220 o          1 XSN      -0.739500
      9 N1           0.4360   -15.0090     1.7900 nt         1 XSN      -0.627000
     10 HN           0.2920   -16.3410    -2.3500 hn         1 XSN       0.397500
     11 HNA         -0.7740   -15.2880    -1.7450 hn         1 XSN       0.397500
     12 HA           0.1230   -16.7140    -0.0140 h1         1 XSN       0.023700
     13 HB           2.7360   -15.4330    -0.9120 hc         1 XSN       0.034700
     14 HBA          2.5310   -16.4340     0.5060 hc         1 XSN       0.034700
     15 HN1          0.4400   -14.2940     2.4990 hn         1 XSN       0.298000
     16 HN1A         0.4510   -15.9660     2.1000 hn         1 XSN       0.298000
@<TRIPOS>BOND
     1     1     3 2   
     2     1     4 1   
     3     1     9 1   
     4     2     4 1   
     5     2    10 1   
     6     2    11 1   
     7     4     5 1   
     8     4    12 1   
     9     5     6 1   
    10     5    13 1   
    11     5    14 1   
    12     6     7 1   
    13     6     8 1   
    14     9    15 1   
    15     9    16 1   
@<TRIPOS>SUBSTRUCTURE
     1 XSN         1 TEMP              0 ****  ****    0 ROOT
