@<TRIPOS>MOLECULE
XSO
   54    56     1     0     0
SMALL
No Charge or Current Charge


@<TRIPOS>ATOM
      1 C17         25.4150    -9.6270   -17.1950 c          1 XSO       0.484600
      2 C12         25.5210   -11.1320   -17.4470 ca         1 XSO       0.270500
      3 C16         24.6700   -13.1830   -18.4470 ca         1 XSO      -0.135000
      4 C15         26.8470   -13.0630   -17.4000 ca         1 XSO       0.318900
      5 C14         24.4780   -11.8370   -18.1030 ca         1 XSO       0.169000
      6 C02         24.9120    -8.9310   -21.0030 cc         1 XSO       0.893100
      7 C04         24.1700   -11.0220   -21.7340 c          1 XSO       0.757100
      8 C05         25.9150   -12.9070   -21.4750 cc         1 XSO      -0.040000
      9 C06         27.2090   -13.0930   -21.0260 cd         1 XSO      -0.259300
     10 C08         25.4630   -11.5630   -21.3590 cc         1 XSO      -0.304600
     11 C09         26.4050   -10.7660   -20.8350 cd         1 XSO       0.244000
     12 C20         26.8520    -7.5590   -16.9090 c3         1 XSO      -0.016300
     13 C21         28.1270    -7.1530   -16.1300 c3         1 XSO      -0.054400
     14 C22         28.0760    -7.4860   -14.6160 c3         1 XSO      -0.198400
     15 C23         29.3430    -6.9610   -13.9150 c          1 XSO       0.707000
     16 C26         26.9070    -7.0890   -18.3940 c          1 XSO       0.703000
     17 C29         28.0060   -14.3780   -21.0290 c3         1 XSO       0.014900
     18 C30         28.5440   -14.7960   -19.6360 c3         1 XSO      -0.074400
     19 C31         27.6120   -15.6850   -18.7630 c3         1 XSO      -0.061400
     20 C33         25.8900   -13.8050   -18.1260 ca         1 XSO      -0.100300
     21 F34         23.3210   -11.2370   -18.4650 f          1 XSO      -0.142000
     22 N01         26.1010    -9.4300   -20.6560 na         1 XSO      -0.902200
     23 N03         23.9930    -9.6630   -21.5280 nd         1 XSO      -0.823100
     24 N13         26.6850   -11.7590   -17.0820 nb         1 XSO      -0.638000
     25 N19         26.6130    -9.0190   -16.8670 ns         1 XSO      -0.423900
     26 O18         24.3820    -8.9720   -17.2980 o          1 XSO      -0.618100
     27 O24         29.3340    -5.8160   -13.4890 o          1 XSO      -0.757500
     28 O25         30.3190    -7.6920   -13.8620 o          1 XSO      -0.757500
     29 O27         26.0610    -6.2980   -18.7820 o          1 XSO      -0.738000
     30 O28         27.6320    -7.6930   -19.1740 o          1 XSO      -0.738000
     31 S07         27.9370   -11.5550   -20.4590 ss         1 XSO       0.171000
     32 H1          23.8960   -13.7180   -18.9910 ha         1 XSO       0.133000
     33 H2          27.7900   -13.5070   -17.0880 h4         1 XSO       0.014100
     34 H3          25.2900   -13.6990   -21.8790 ha         1 XSO       0.126000
     35 H4          25.9930    -7.0570   -16.4440 h1         1 XSO       0.069700
     36 H5          29.0000    -7.6410   -16.5820 hc         1 XSO       0.052700
     37 H6          28.2760    -6.0730   -16.2500 hc         1 XSO       0.052700
     38 H7          27.1860    -6.9770   -14.2270 hc         1 XSO       0.019200
     39 H8          28.0270    -8.5790   -14.5430 hc         1 XSO       0.019200
     40 H9          27.4180   -15.2000   -21.4550 hc         1 XSO       0.034700
     41 H10         28.8640   -14.2470   -21.7000 hc         1 XSO       0.034700
     42 H11         29.4680   -15.3660   -19.7960 hc         1 XSO       0.042200
     43 H12         28.8550   -13.9070   -19.0770 hc         1 XSO       0.042200
     44 H13         27.6060   -16.6940   -19.1920 hc         1 XSO       0.027700
     45 H14         28.0640   -15.7870   -17.7700 hc         1 XSO       0.027700
     46 H17         26.7790    -8.7860   -20.2420 hn         1 XSO       0.598000
     47 H18         23.7680    -7.4030   -20.9640 hn         1 XSO       0.522500
     48 H19         25.2330    -7.2080   -20.1140 hn         1 XSO       0.522500
     49 H20         27.4110    -9.6420   -16.7990 hn         1 XSO       0.328500
     50 C32         26.1350   -15.2390   -18.5970 c3         1 XSO      -0.018100
     51 N11         24.7400    -7.6570   -20.8850 nv         1 XSO      -1.040200
     52 H15         25.6300   -15.3910   -19.5590 hc         1 XSO       0.042200
     53 H16         25.6480   -15.9300   -17.8980 hc         1 XSO       0.042200
     54 O10         23.2630   -11.6810   -22.2180 o          1 XSO      -0.646100
@<TRIPOS>BOND
     1     1     2 1   
     2     1    25 1   
     3     1    26 2   
     4     2     5 ar  
     5     2    24 ar  
     6     3     5 ar  
     7     3    20 ar  
     8     3    32 1   
     9     4    20 ar  
    10     4    24 ar  
    11     4    33 1   
    12     5    21 1   
    13     6    22 1   
    14     6    23 2   
    15     6    51 1   
    16     7    10 1   
    17     7    23 1   
    18     7    54 2   
    19     8     9 2   
    20     8    10 1   
    21     8    34 1   
    22     9    17 1   
    23     9    31 1   
    24    10    11 2   
    25    11    22 1   
    26    11    31 1   
    27    12    13 1   
    28    12    16 1   
    29    12    25 1   
    30    12    35 1   
    31    13    14 1   
    32    13    36 1   
    33    13    37 1   
    34    14    15 1   
    35    14    38 1   
    36    14    39 1   
    37    15    27 1   
    38    15    28 1   
    39    16    29 1   
    40    16    30 1   
    41    17    18 1   
    42    17    40 1   
    43    17    41 1   
    44    18    19 1   
    45    18    42 1   
    46    18    43 1   
    47    19    44 1   
    48    19    45 1   
    49    19    50 1   
    50    20    50 1   
    51    22    46 1   
    52    25    49 1   
    53    47    51 1   
    54    48    51 1   
    55    50    52 1   
    56    50    53 1   
@<TRIPOS>SUBSTRUCTURE
     1 XSO         1 TEMP              0 ****  ****    0 ROOT
