@<TRIPOS>MOLECULE
XSO
   54    56     1     0     0
SMALL
abcg2


@<TRIPOS>ATOM
      1 C17         25.4800    -9.6180   -17.1270 c          1 XSO       0.484600
      2 C12         25.5540   -11.0980   -17.3710 ca         1 XSO       0.270500
      3 C16         24.7930   -13.1030   -18.4710 ca         1 XSO      -0.135000
      4 C15         26.8530   -13.0110   -17.3020 ca         1 XSO       0.318900
      5 C14         24.5860   -11.7930   -18.0930 ca         1 XSO       0.169000
      6 C02         24.8170    -8.9930   -21.0550 cc         1 XSO       0.893100
      7 C04         24.0800   -11.0540   -21.9060 c          1 XSO       0.757100
      8 C05         25.8500   -12.9710   -21.6390 cc         1 XSO      -0.040000
      9 C06         27.0960   -13.1450   -21.1270 cd         1 XSO      -0.259300
     10 C08         25.3640   -11.6270   -21.5270 cc         1 XSO      -0.304600
     11 C09         26.2830   -10.8030   -20.9200 cd         1 XSO       0.244000
     12 C20         26.8720    -7.6330   -16.8500 c3         1 XSO      -0.016300
     13 C21         28.1570    -7.2300   -16.1280 c3         1 XSO      -0.054400
     14 C22         28.0970    -7.4530   -14.6200 c3         1 XSO      -0.198400
     15 C23         29.3430    -6.9850   -13.8410 c          1 XSO       0.707000
     16 C26         26.9300    -7.2520   -18.3510 c          1 XSO       0.703000
     17 C29         27.9510   -14.3750   -21.0670 c3         1 XSO       0.014900
     18 C30         28.5520   -14.6920   -19.6830 c3         1 XSO      -0.074400
     19 C31         27.6940   -15.5590   -18.7530 c3         1 XSO      -0.061400
     20 C33         25.9640   -13.7450   -18.0940 ca         1 XSO      -0.100300
     21 F34         23.4430   -11.2080   -18.4940 f          1 XSO      -0.142000
     22 N01         26.0300    -9.4880   -20.6780 na         1 XSO      -0.902200
     23 N03         23.8850    -9.7160   -21.6460 nd         1 XSO      -0.823100
     24 N13         26.6610   -11.7390   -16.9750 nb         1 XSO      -0.638000
     25 N19         26.6390    -9.0650   -16.7230 ns         1 XSO      -0.423900
     26 O18         24.4550    -8.9660   -17.3340 o          1 XSO      -0.618100
     27 O24         29.9610    -5.9780   -14.2740 o          1 XSO      -0.757500
     28 O25         29.6310    -7.6330   -12.7990 o          1 XSO      -0.757500
     29 O27         26.2610    -6.2650   -18.7310 o          1 XSO      -0.738000
     30 O28         27.6370    -7.9920   -19.0960 o          1 XSO      -0.738000
     31 S07         27.7320   -11.6290   -20.4890 ss         1 XSO       0.171000
     32 H1          24.0540   -13.5970   -19.0880 ha         1 XSO       0.133000
     33 H2          27.7730   -13.4600   -16.9500 h4         1 XSO       0.014100
     34 H3          25.2750   -13.7790   -22.0690 ha         1 XSO       0.126000
     35 H4          26.0250    -7.1100   -16.4100 h1         1 XSO       0.069700
     36 H5          28.9940    -7.7880   -16.5590 hc         1 XSO       0.052700
     37 H6          28.3440    -6.1750   -16.3320 hc         1 XSO       0.052700
     38 H7          27.2410    -6.9030   -14.2100 hc         1 XSO       0.019200
     39 H8          27.9240    -8.5060   -14.3920 hc         1 XSO       0.019200
     40 H9          27.3540   -15.2170   -21.4260 hc         1 XSO       0.034700
     41 H10         28.7760   -14.2580   -21.7750 hc         1 XSO       0.034700
     42 H11         29.4960   -15.2190   -19.8340 hc         1 XSO       0.042200
     43 H12         28.8140   -13.7550   -19.1850 hc         1 XSO       0.042200
     44 H13         27.6840   -16.5810   -19.1440 hc         1 XSO       0.027700
     45 H14         28.1910   -15.6140   -17.7810 hc         1 XSO       0.027700
     46 H17         26.7030    -8.8900   -20.1540 hn         1 XSO       0.598000
     47 H18         23.6620    -7.3490   -20.9520 hn         1 XSO       0.522500
     48 H19         25.2060    -7.1540   -20.1900 hn         1 XSO       0.522500
     49 H20         27.4370    -9.6830   -16.6970 hn         1 XSO       0.328500
     50 C32         26.2290   -15.1510   -18.5620 c3         1 XSO      -0.018100
     51 N11         24.6030    -7.6820   -20.8180 nv         1 XSO      -1.040200
     52 H15         25.6830   -15.2960   -19.4960 hc         1 XSO       0.042200
     53 H16         25.7760   -15.8450   -17.8450 hc         1 XSO       0.042200
     54 O10         23.1840   -11.7320   -22.4380 o          1 XSO      -0.646100
@<TRIPOS>BOND
     1     1     2 1   
     2     1    25 1   
     3     1    26 2   
     4     2     5 ar  
     5     2    24 ar  
     6     3     5 ar  
     7     3    20 ar  
     8     3    32 1   
     9     4    20 ar  
    10     4    24 ar  
    11     4    33 1   
    12     5    21 1   
    13     6    22 1   
    14     6    23 2   
    15     6    51 1   
    16     7    10 1   
    17     7    23 1   
    18     7    54 2   
    19     8     9 2   
    20     8    10 1   
    21     8    34 1   
    22     9    17 1   
    23     9    31 1   
    24    10    11 2   
    25    11    22 1   
    26    11    31 1   
    27    12    13 1   
    28    12    16 1   
    29    12    25 1   
    30    12    35 1   
    31    13    14 1   
    32    13    36 1   
    33    13    37 1   
    34    14    15 1   
    35    14    38 1   
    36    14    39 1   
    37    15    27 1   
    38    15    28 1   
    39    16    29 1   
    40    16    30 1   
    41    17    18 1   
    42    17    40 1   
    43    17    41 1   
    44    18    19 1   
    45    18    42 1   
    46    18    43 1   
    47    19    44 1   
    48    19    45 1   
    49    19    50 1   
    50    20    50 1   
    51    22    46 1   
    52    25    49 1   
    53    47    51 1   
    54    48    51 1   
    55    50    52 1   
    56    50    53 1   
@<TRIPOS>SUBSTRUCTURE
     1 XSO         1 TEMP              0 ****  ****    0 ROOT
