@<TRIPOS>MOLECULE
XSR
   97   102     1     0     0
SMALL
abcg2


@<TRIPOS>ATOM
      1 C4          82.2810    52.3910     7.6300 c3         1 XSR      -0.072400
      2 C14         70.7620    44.4340     5.6450 ca         1 XSR       0.141000
      3 C5          80.8000    52.5810     7.9320 c3         1 XSR      -0.075400
      4 C6          79.9260    51.4020     7.5590 c3         1 XSR       0.157600
      5 C11         74.0150    46.3670     5.9550 c          1 XSR       0.633700
      6 C7          79.7880    49.0540     7.8470 c3         1 XSR       0.156600
      7 C8          78.2920    48.8870     8.0810 c3         1 XSR       0.125600
      8 C9          76.5370    47.4000     7.6210 c3         1 XSR       0.137600
      9 C10         76.2530    46.0940     6.8910 c3         1 XSR       0.101000
     10 C12         72.5730    45.9590     6.0810 ca         1 XSR      -0.253600
     11 C13         72.1080    44.7540     5.5960 ca         1 XSR       0.182000
     12 N1          74.8370    45.8060     6.8480 ns         1 XSR      -0.495900
     13 N2          67.4720    46.0110    12.2650 nn         1 XSR      -0.804400
     14 C3          83.0980    53.6470     7.9060 c3         1 XSR      -0.076400
     15 N3          68.3110    52.0160     4.0820 nn         1 XSR      -0.804400
     16 C1          85.3800    54.7580     7.8560 c3         1 XSR      -0.088100
     17 C2          84.5820    53.4860     7.6010 c3         1 XSR      -0.074400
     18 O1          80.2840    50.2750     8.3320 os         1 XSR      -0.454000
     19 O2          77.9210    47.6270     7.5780 os         1 XSR      -0.460000
     20 O3          74.3610    47.1530     5.0920 o          1 XSR      -0.579100
     21 F1          72.9720    43.8830     5.0730 f          1 XSR      -0.153000
     22 C15         69.8330    45.3180     6.1590 ca         1 XSR      -0.092600
     23 C16         68.3470    44.9530     6.2680 c          1 XSR       0.717600
     24 O4          68.1060    43.8870     6.8490 o          1 XSR      -0.669500
     25 O5          67.5660    45.7860     5.7880 o          1 XSR      -0.669500
     26 C17         70.2840    46.5530     6.6350 ca         1 XSR      -0.181800
     27 C18         69.3350    47.5320     7.2350 ce         1 XSR       0.342600
     28 C19         68.8870    47.2230     8.5440 ca         1 XSR      -0.160300
     29 C20         69.4020    46.0760     9.2110 ca         1 XSR       0.064500
     30 C21         68.9620    45.6800    10.4380 ca         1 XSR      -0.227000
     31 C22         67.9450    46.4100    11.0980 ca         1 XSR       0.435000
     32 C23         66.4430    46.5390    13.1480 cy         1 XSR       0.215800
     33 C24         66.6890    45.3370    14.0820 cy         1 XSR      -0.109400
     34 C25         67.7630    44.8470    13.0890 cy         1 XSR       0.215800
     35 C26         67.4560    47.5890    10.4730 ca         1 XSR      -0.200500
     36 C27         67.9070    47.9910     9.2450 ca         1 XSR       0.186000
     37 SI1         67.2240    49.5680     8.5050 sy         1 XSR       0.131500
     38 C29         65.3910    49.3880     8.1550 c3         1 XSR      -0.119100
     39 C30         67.5730    51.0350     9.6170 c3         1 XSR      -0.119100
     40 C31         68.1540    49.7120     6.8900 ca         1 XSR      -0.258500
     41 C32         67.9300    50.8100     6.1030 ca         1 XSR      -0.200500
     42 C33         68.5220    50.9390     4.8180 ca         1 XSR       0.435000
     43 C34         68.7800    52.4110     2.7620 cy         1 XSR       0.215800
     44 C35         68.0150    53.7380     2.9360 cy         1 XSR      -0.109400
     45 C36         67.5630    53.2410     4.3240 cy         1 XSR       0.215800
     46 C37         69.3260    49.8730     4.3450 ca         1 XSR      -0.227000
     47 C38         69.5510    48.7840     5.1340 ca         1 XSR       0.064500
     48 C39         69.0130    48.6640     6.4450 ca         1 XSR      -0.148500
     49 C40         71.6350    46.8350     6.5950 ca         1 XSR       0.207000
     50 F3          72.0720    48.0020     7.0820 f          1 XSR      -0.173000
     51 H8          82.4010    52.1070     6.5780 hc         1 XSR       0.044200
     52 H9          82.6800    51.5600     8.2190 hc         1 XSR       0.044200
     53 H10         80.6620    52.8210     8.9910 hc         1 XSR       0.044700
     54 H11         80.4260    53.4470     7.3760 hc         1 XSR       0.044700
     55 H12         78.8730    51.6690     7.7130 h1         1 XSR       0.023200
     56 H13         80.0430    51.1810     6.4870 h1         1 XSR       0.023200
     57 H15         80.3270    48.2630     8.3740 h1         1 XSR       0.056700
     58 H14         80.0020    48.9400     6.7750 h1         1 XSR       0.056700
     59 H17         77.7280    49.6810     7.5720 h1         1 XSR       0.028700
     60 H16         78.0680    48.9710     9.1530 h1         1 XSR       0.028700
     61 H19         75.9930    48.2210     7.1370 h1         1 XSR       0.031700
     62 H18         76.1740    47.3360     8.6560 h1         1 XSR       0.031700
     63 H21         76.7470    45.2630     7.3920 h1         1 XSR       0.068200
     64 H20         76.6430    46.1440     5.8730 h1         1 XSR       0.068200
     65 H22         74.4480    45.2060     7.5590 hn         1 XSR       0.323500
     66 H6          82.9740    53.9390     8.9550 hc         1 XSR       0.035700
     67 H7          82.6970    54.4770     7.3140 hc         1 XSR       0.035700
     68 H2          86.4370    54.6200     7.6290 hc         1 XSR       0.031033
     69 H3          85.0160    55.5820     7.2400 hc         1 XSR       0.031033
     70 H1          85.3030    55.0690     8.8990 hc         1 XSR       0.031033
     71 H4          84.7050    53.1800     6.5580 hc         1 XSR       0.037700
     72 H5          84.9890    52.6700     8.2050 hc         1 XSR       0.037700
     73 H23         70.1870    45.4880     8.7570 ha         1 XSR       0.138000
     74 H24         69.3860    44.8000    10.9040 ha         1 XSR       0.128000
     75 H26         66.6860    47.5190    13.5650 h1         1 XSR       0.065200
     76 H25         65.4550    46.5840    12.6850 h1         1 XSR       0.065200
     77 H28         65.8380    44.6690    14.1900 hc         1 XSR       0.070950
     78 H27         67.0690    45.5990    15.0650 hc         1 XSR       0.070950
     79 H29         67.5490    43.8990    12.5910 h1         1 XSR       0.065200
     80 H30         68.7860    44.8260    13.4690 h1         1 XSR       0.065200
     81 H31         66.7040    48.1730    10.9930 ha         1 XSR       0.110500
     82 H32         64.8310    49.2340     9.0790 h1         1 XSR       0.064867
     83 H33         65.0000    50.2850     7.6730 h1         1 XSR       0.064867
     84 H34         65.1970    48.5400     7.4970 h1         1 XSR       0.064867
     85 H37         67.0520    50.9360    10.5710 h1         1 XSR       0.064867
     86 H35         68.6390    51.1310     9.8230 h1         1 XSR       0.064867
     87 H36         67.2350    51.9610     9.1500 h1         1 XSR       0.064867
     88 H38         67.2760    51.6040     6.4480 ha         1 XSR       0.110500
     89 H39         68.4230    51.7600     1.9610 h1         1 XSR       0.065200
     90 H40         69.8670    52.4940     2.6920 h1         1 XSR       0.065200
     91 H41         68.6460    54.6230     2.9570 hc         1 XSR       0.070950
     92 H42         67.2060    53.8890     2.2250 hc         1 XSR       0.070950
     93 H44         67.9350    53.8150     5.1760 h1         1 XSR       0.065200
     94 H43         66.4900    53.0820     4.4450 h1         1 XSR       0.065200
     95 H45         69.7580    49.9180     3.3540 ha         1 XSR       0.128000
     96 H46         70.1560    47.9890     4.7200 ha         1 XSR       0.138000
     97 F2          70.3790    43.2530     5.1530 f          1 XSR      -0.133000
@<TRIPOS>BOND
     1     1     3 1   
     2     1    14 1   
     3     1    51 1   
     4     1    52 1   
     5     2    11 ar  
     6     2    22 ar  
     7     2    97 1   
     8     3     4 1   
     9     3    53 1   
    10     3    54 1   
    11     4    18 1   
    12     4    55 1   
    13     4    56 1   
    14     5    10 1   
    15     5    12 1   
    16     5    20 2   
    17     6     7 1   
    18     6    18 1   
    19     6    57 1   
    20     6    58 1   
    21     7    19 1   
    22     7    59 1   
    23     7    60 1   
    24     8     9 1   
    25     8    19 1   
    26     8    61 1   
    27     8    62 1   
    28     9    12 1   
    29     9    63 1   
    30     9    64 1   
    31    10    11 ar  
    32    10    49 ar  
    33    11    21 1   
    34    12    65 1   
    35    13    31 1   
    36    13    32 1   
    37    13    34 1   
    38    14    17 1   
    39    14    66 1   
    40    14    67 1   
    41    15    42 1   
    42    15    43 1   
    43    15    45 1   
    44    16    17 1   
    45    16    68 1   
    46    16    69 1   
    47    16    70 1   
    48    17    71 1   
    49    17    72 1   
    50    22    23 1   
    51    22    26 ar  
    52    23    24 1   
    53    23    25 1   
    54    26    27 1   
    55    26    49 ar  
    56    27    28 1   
    57    27    48 2   
    58    28    29 ar  
    59    28    36 ar  
    60    29    30 ar  
    61    29    73 1   
    62    30    31 ar  
    63    30    74 1   
    64    31    35 ar  
    65    32    33 1   
    66    32    75 1   
    67    32    76 1   
    68    33    34 1   
    69    33    77 1   
    70    33    78 1   
    71    34    79 1   
    72    34    80 1   
    73    35    36 ar  
    74    35    81 1   
    75    36    37 1   
    76    37    38 1   
    77    37    39 1   
    78    37    40 2   
    79    38    82 1   
    80    38    83 1   
    81    38    84 1   
    82    39    85 1   
    83    39    86 1   
    84    39    87 1   
    85    40    41 ar  
    86    40    48 ar  
    87    41    42 ar  
    88    41    88 1   
    89    42    46 ar  
    90    43    44 1   
    91    43    89 1   
    92    43    90 1   
    93    44    45 1   
    94    44    91 1   
    95    44    92 1   
    96    45    93 1   
    97    45    94 1   
    98    46    47 ar  
    99    46    95 1   
   100    47    48 ar  
   101    47    96 1   
   102    49    50 1   
@<TRIPOS>SUBSTRUCTURE
     1 XSR         1 TEMP              0 ****  ****    0 ROOT
