@<TRIPOS>MOLECULE
XSR
   97   102     1     0     0
SMALL
No Charge or Current Charge


@<TRIPOS>ATOM
      1 C4          83.0610    52.1060     8.7190 c3         1 XSR      -0.072400
      2 C14         71.1420    44.6670     5.5730 ca         1 XSR       0.141000
      3 C5          81.6110    51.9030     9.2200 c3         1 XSR      -0.075400
      4 C6          80.6420    51.3820     8.1380 c3         1 XSR       0.157600
      5 C11         73.8620    47.3980     5.3860 c          1 XSR       0.633700
      6 C7          80.3240    49.4480     6.6700 c3         1 XSR       0.156600
      7 C8          78.8860    49.1070     7.1320 c3         1 XSR       0.125600
      8 C9          76.8990    47.9450     6.3850 c3         1 XSR       0.137600
      9 C10         76.3660    47.1390     5.1800 c3         1 XSR       0.101000
     10 C12         72.5550    46.6810     5.6340 ca         1 XSR      -0.253600
     11 C13         72.3740    45.3060     5.3330 ca         1 XSR       0.182000
     12 N1          75.0030    46.6280     5.3890 ns         1 XSR      -0.495900
     13 N2          68.4480    47.2480    12.6950 nn         1 XSR      -0.804400
     14 C3          84.0040    52.6630     9.8080 c3         1 XSR      -0.076400
     15 N3          66.0730    50.7970     3.3630 nn         1 XSR      -0.804400
     16 C1          86.3920    53.4210    10.3960 c3         1 XSR      -0.088100
     17 C2          85.4510    52.8660     9.3100 c3         1 XSR      -0.074400
     18 O1          81.0660    50.0610     7.7510 os         1 XSR      -0.454000
     19 O2          78.2510    48.3410     6.0920 os         1 XSR      -0.460000
     20 O3          73.9240    48.5960     5.1570 o          1 XSR      -0.579100
     21 F1          73.3660    44.5770     4.7710 f          1 XSR      -0.153000
     22 C15         70.0600    45.3780     6.1150 ca         1 XSR      -0.092600
     23 C16         68.7590    44.6670     6.3660 c          1 XSR       0.717600
     24 O4          68.7290    43.8260     7.2520 o          1 XSR      -0.669500
     25 O5          67.7890    44.9990     5.7030 o          1 XSR      -0.669500
     26 C17         70.2220    46.7510     6.4150 ca         1 XSR      -0.181800
     27 C18         69.0980    47.5370     7.0050 ce         1 XSR       0.342600
     28 C19         68.9070    47.4750     8.5020 ca         1 XSR      -0.160300
     29 C20         69.7020    46.5990     9.2790 ca         1 XSR       0.064500
     30 C21         69.5440    46.5280    10.6720 ca         1 XSR      -0.227000
     31 C22         68.5960    47.3220    11.3260 ca         1 XSR       0.435000
     32 C23         67.3670    47.7350    13.5950 cy         1 XSR       0.215800
     33 C24         68.2340    47.1510    14.7570 cy         1 XSR      -0.109400
     34 C25         68.9200    46.2420    13.6860 cy         1 XSR       0.215800
     35 C26         67.8100    48.1980    10.5720 ca         1 XSR      -0.200500
     36 C27         67.9610    48.2750     9.1780 ca         1 XSR       0.186000
     37 SI1         66.9380    49.4230     8.2740 sy         1 XSR       0.131500
     38 C29         65.1870    49.0630     8.5730 c3         1 XSR      -0.119100
     39 C30         67.2720    51.1140     8.8320 c3         1 XSR      -0.119100
     40 C31         67.2850    49.2970     6.5330 ca         1 XSR      -0.258500
     41 C32         66.5540    50.0910     5.6280 ca         1 XSR      -0.200500
     42 C33         66.7920    50.0160     4.2460 ca         1 XSR       0.435000
     43 C34         66.3150    51.1390     1.9350 cy         1 XSR       0.215800
     44 C35         64.9970    51.9740     2.0350 cy         1 XSR      -0.109400
     45 C36         65.2190    51.9950     3.5820 cy         1 XSR       0.215800
     46 C37         67.7670    49.1270     3.7780 ca         1 XSR      -0.227000
     47 C38         68.5010    48.3310     4.6750 ca         1 XSR       0.064500
     48 C39         68.2800    48.4050     6.0720 ca         1 XSR      -0.148500
     49 C40         71.4540    47.3870     6.1750 ca         1 XSR       0.207000
     50 F3          71.5710    48.6890     6.5200 f          1 XSR      -0.173000
     51 H8          83.0530    52.7930     7.8630 hc         1 XSR       0.044200
     52 H9          83.4580    51.1490     8.3570 hc         1 XSR       0.044200
     53 H10         81.6080    51.2080    10.0680 hc         1 XSR       0.044700
     54 H11         81.2270    52.8600     9.5950 hc         1 XSR       0.044700
     55 H12         79.6260    51.3620     8.5540 h1         1 XSR       0.023200
     56 H13         80.6500    52.0650     7.2780 h1         1 XSR       0.023200
     57 H15         80.8210    48.5190     6.3620 h1         1 XSR       0.056700
     58 H14         80.2840    50.1120     5.7960 h1         1 XSR       0.056700
     59 H17         78.3240    50.0310     7.3200 h1         1 XSR       0.028700
     60 H16         78.9300    48.5270     8.0640 h1         1 XSR       0.028700
     61 H19         76.2650    48.8250     6.5520 h1         1 XSR       0.031700
     62 H18         76.8660    47.3180     7.2850 h1         1 XSR       0.031700
     63 H21         77.0330    46.2870     4.9960 h1         1 XSR       0.068200
     64 H20         76.3760    47.7750     4.2850 h1         1 XSR       0.068200
     65 H22         74.8780    45.6370     5.5580 hn         1 XSR       0.323500
     66 H6          84.0110    51.9760    10.6640 hc         1 XSR       0.035700
     67 H7          83.6100    53.6220    10.1700 hc         1 XSR       0.035700
     68 H2          87.4050    53.5480     9.9960 hc         1 XSR       0.031033
     69 H3          86.0390    54.3970    10.7530 hc         1 XSR       0.031033
     70 H1          86.4430    52.7370    11.2520 hc         1 XSR       0.031033
     71 H4          85.4480    53.5540     8.4550 hc         1 XSR       0.037700
     72 H5          85.8490    51.9090     8.9490 hc         1 XSR       0.037700
     73 H23         70.4530    45.9610     8.8200 ha         1 XSR       0.138000
     74 H24         70.1680    45.8480    11.2420 ha         1 XSR       0.128000
     75 H26         67.2320    48.8220    13.6480 h1         1 XSR       0.065200
     76 H25         66.4000    47.2340    13.4660 h1         1 XSR       0.065200
     77 H28         67.6840    46.6270    15.5440 hc         1 XSR       0.070950
     78 H27         68.9080    47.8800    15.2180 hc         1 XSR       0.070950
     79 H29         68.4650    45.2490    13.5870 h1         1 XSR       0.065200
     80 H30         70.0070    46.1560    13.8110 h1         1 XSR       0.065200
     81 H31         67.0790    48.8270    11.0690 ha         1 XSR       0.110500
     82 H32         64.9790    49.1510     9.6460 h1         1 XSR       0.064867
     83 H33         64.5740    49.7790     8.0130 h1         1 XSR       0.064867
     84 H34         64.9720    48.0420     8.2330 h1         1 XSR       0.064867
     85 H37         67.0510    51.1890     9.9030 h1         1 XSR       0.064867
     86 H35         68.3290    51.3450     8.6500 h1         1 XSR       0.064867
     87 H36         66.6370    51.8080     8.2690 h1         1 XSR       0.064867
     88 H38         65.7930    50.7710     6.0000 ha         1 XSR       0.110500
     89 H39         66.2580    50.3090     1.2200 h1         1 XSR       0.065200
     90 H40         67.2120    51.7430     1.7510 h1         1 XSR       0.065200
     91 H41         65.0130    52.9490     1.5380 hc         1 XSR       0.070950
     92 H42         64.1010    51.4300     1.7220 hc         1 XSR       0.070950
     93 H44         65.7550    52.8820     3.9430 h1         1 XSR       0.065200
     94 H43         64.3020    51.8380     4.1630 h1         1 XSR       0.065200
     95 H45         67.9610    49.0450     2.7140 ha         1 XSR       0.128000
     96 H46         69.2430    47.6520     4.2610 ha         1 XSR       0.138000
     97 F2          70.9980    43.3580     5.2570 f          1 XSR      -0.133000
@<TRIPOS>BOND
     1     1     3 1   
     2     1    14 1   
     3     1    51 1   
     4     1    52 1   
     5     2    11 ar  
     6     2    22 ar  
     7     2    97 1   
     8     3     4 1   
     9     3    53 1   
    10     3    54 1   
    11     4    18 1   
    12     4    55 1   
    13     4    56 1   
    14     5    10 1   
    15     5    12 1   
    16     5    20 2   
    17     6     7 1   
    18     6    18 1   
    19     6    57 1   
    20     6    58 1   
    21     7    19 1   
    22     7    59 1   
    23     7    60 1   
    24     8     9 1   
    25     8    19 1   
    26     8    61 1   
    27     8    62 1   
    28     9    12 1   
    29     9    63 1   
    30     9    64 1   
    31    10    11 ar  
    32    10    49 ar  
    33    11    21 1   
    34    12    65 1   
    35    13    31 1   
    36    13    32 1   
    37    13    34 1   
    38    14    17 1   
    39    14    66 1   
    40    14    67 1   
    41    15    42 1   
    42    15    43 1   
    43    15    45 1   
    44    16    17 1   
    45    16    68 1   
    46    16    69 1   
    47    16    70 1   
    48    17    71 1   
    49    17    72 1   
    50    22    23 1   
    51    22    26 ar  
    52    23    24 1   
    53    23    25 1   
    54    26    27 1   
    55    26    49 ar  
    56    27    28 1   
    57    27    48 2   
    58    28    29 ar  
    59    28    36 ar  
    60    29    30 ar  
    61    29    73 1   
    62    30    31 ar  
    63    30    74 1   
    64    31    35 ar  
    65    32    33 1   
    66    32    75 1   
    67    32    76 1   
    68    33    34 1   
    69    33    77 1   
    70    33    78 1   
    71    34    79 1   
    72    34    80 1   
    73    35    36 ar  
    74    35    81 1   
    75    36    37 1   
    76    37    38 1   
    77    37    39 1   
    78    37    40 2   
    79    38    82 1   
    80    38    83 1   
    81    38    84 1   
    82    39    85 1   
    83    39    86 1   
    84    39    87 1   
    85    40    41 ar  
    86    40    48 ar  
    87    41    42 ar  
    88    41    88 1   
    89    42    46 ar  
    90    43    44 1   
    91    43    89 1   
    92    43    90 1   
    93    44    45 1   
    94    44    91 1   
    95    44    92 1   
    96    45    93 1   
    97    45    94 1   
    98    46    47 ar  
    99    46    95 1   
   100    47    48 ar  
   101    47    96 1   
   102    49    50 1   
@<TRIPOS>SUBSTRUCTURE
     1 XSR         1 TEMP              0 ****  ****    0 ROOT
