@<TRIPOS>MOLECULE
XSS
  103   108     1     0     0
SMALL
bcc


@<TRIPOS>ATOM
      1 C13        -13.4200   -23.7120    14.1840 cx         1 XSS      -0.034500
      2 C15        -17.1720   -20.4470    16.5890 c3         1 XSS       0.068700
      3 C22        -16.4570   -22.3420    18.1590 c3         1 XSS      -0.078400
      4 C24        -13.2060   -15.8150    16.8130 ca         1 XSS       0.574300
      5 C28        -11.9310   -13.4460    16.7820 ca         1 XSS       0.287300
      6 C01        -13.4620   -19.7110    16.0170 c5         1 XSS       0.033700
      7 C02        -12.6510   -18.9380    17.0640 c5         1 XSS      -0.109400
      8 C04        -12.9930   -21.1540    15.8790 c          1 XSS       0.658100
      9 C05        -13.6750   -17.9890    17.6660 c5         1 XSS       0.140100
     10 C06        -14.9300   -18.8350    17.7330 c5         1 XSS       0.106000
     11 C08        -15.7940   -20.3480    15.9250 c          1 XSS       0.671100
     12 C11        -12.1640   -22.8530    14.3870 cx         1 XSS      -0.070600
     13 C12        -10.9480   -23.4880    14.9750 c          1 XSS       0.744100
     14 C14        -12.5740   -23.3340    13.0230 cx         1 XSS      -0.093400
     15 C18        -17.4030   -21.8890    17.0510 c3         1 XSS      -0.090400
     16 C19        -18.1930   -18.9020    15.0270 c          1 XSS       0.772100
     17 C23        -16.5130   -23.8520    18.4360 c3         1 XSS      -0.066400
     18 C25        -13.3210   -14.8970    15.7160 ca         1 XSS       0.211300
     19 C27        -11.7850   -14.3740    17.8370 ca         1 XSS       0.321300
     20 C29        -10.9540   -14.0350    18.9170 ca         1 XSS      -0.144300
     21 C31        -11.2720   -12.2100    16.8180 ca         1 XSS      -0.186300
     22 C32        -14.1500   -15.2410    14.5020 c3         1 XSS       0.643600
     23 C33        -10.3130   -12.8240    18.9470 ca         1 XSS      -0.168000
     24 C34        -10.4710   -11.8920    17.8940 ca         1 XSS       0.139100
     25 C40         -8.4720   -21.7800    17.5320 cx         1 XSS      -0.290200
     26 C41         -7.8870   -20.5570    16.8850 cx         1 XSS      -0.077900
     27 C42         -7.0290   -21.4240    17.7430 cx         1 XSS      -0.077900
     28 C43         -9.4630   -21.6720    18.6620 c3         1 XSS      -0.043100
     29 C44        -13.5720   -25.0960    14.6730 c2         1 XSS      -0.141200
     30 C45        -14.5290   -25.4990    15.5130 c2         1 XSS      -0.139200
     31 C46        -15.5810   -24.6600    16.1680 c3         1 XSS      -0.048200
     32 C47        -15.4590   -24.6750    17.6930 c3         1 XSS      -0.074400
     33 C48        -19.3890   -17.6830    13.2970 c3         1 XSS       0.148800
     34 C49        -19.8420   -16.4930    14.1350 c3         1 XSS      -0.127100
     35 C50        -18.1940   -17.3370    12.4160 c3         1 XSS      -0.127100
     36 C51        -20.5540   -18.1820    12.4250 c3         1 XSS       0.664900
     37 C59         -9.0160   -10.3250    18.9370 c3         1 XSS       0.124700
     38 F52        -15.4460   -15.3650    14.8070 f          1 XSS      -0.219300
     39 F53        -14.0460   -14.3050    13.5650 f          1 XSS      -0.219300
     40 F54        -13.7550   -16.3980    13.9600 f          1 XSS      -0.219300
     41 F55        -20.2160   -19.2580    11.7060 f          1 XSS      -0.230633
     42 F56        -21.6160   -18.5220    13.1620 f          1 XSS      -0.230633
     43 F57        -20.9590   -17.2470    11.5600 f          1 XSS      -0.230633
     44 N03        -14.8130   -19.6910    16.5600 n          1 XSS      -0.455800
     45 N10        -12.4010   -21.4840    14.7080 ns         1 XSS      -0.538900
     46 N17        -18.1930   -20.1030    15.6290 ns         1 XSS      -0.554900
     47 N26        -12.4390   -15.5590    17.8190 nb         1 XSS      -0.733000
     48 N30        -12.7090   -13.7610    15.7150 nb         1 XSS      -0.565000
     49 N35        -10.1810   -22.6520    15.7430 ns         1 XSS      -0.633300
     50 O07        -13.9350   -16.9220    16.7440 os         1 XSS      -0.420100
     51 O09        -13.1120   -21.9450    16.7940 o          1 XSS      -0.571100
     52 O16        -15.5910   -20.9160    14.8600 o          1 XSS      -0.614100
     53 O20        -19.1540   -18.8470    14.0970 os         1 XSS      -0.443900
     54 O21        -17.4250   -18.0060    15.3060 o          1 XSS      -0.586000
     55 O36        -10.6490   -24.6470    14.7890 o          1 XSS      -0.548100
     56 O38         -7.7080   -23.2620    15.4650 o          1 XSS      -0.584800
     57 O39         -9.0500   -24.3430    17.2720 o          1 XSS      -0.584800
     58 O58         -9.8780   -10.6890    17.8750 os         1 XSS      -0.310900
     59 S37         -8.7510   -23.1690    16.4730 s6         1 XSS       1.281600
     60 H131       -14.3030   -23.0950    14.2930 hc         1 XSS       0.103700
     61 H151       -17.2470   -19.7870    17.4560 h1         1 XSS       0.069700
     62 H222       -15.4250   -22.0680    17.9270 hc         1 XSS       0.049200
     63 H221       -16.7130   -21.7920    19.0680 hc         1 XSS       0.049200
     64 H011       -13.4330   -19.1970    15.0510 h1         1 XSS       0.082700
     65 H021       -12.2900   -19.6050    17.8500 hc         1 XSS       0.074200
     66 H022       -11.7890   -18.4290    16.6350 hc         1 XSS       0.074200
     67 H051       -13.3890   -17.5940    18.6390 h1         1 XSS       0.096700
     68 H061       -15.8330   -18.2270    17.7070 h1         1 XSS       0.075200
     69 H062       -14.9280   -19.4140    18.6590 h1         1 XSS       0.075200
     70 H142       -11.9470   -24.0920    12.5710 hc         1 XSS       0.088200
     71 H141       -12.9490   -22.5850    12.3350 hc         1 XSS       0.088200
     72 H181       -18.4330   -21.9650    17.4110 hc         1 XSS       0.058700
     73 H182       -17.3340   -22.5440    16.1790 hc         1 XSS       0.058700
     74 H232       -17.5130   -24.2370    18.2090 hc         1 XSS       0.037200
     75 H231       -16.3670   -24.0200    19.5050 hc         1 XSS       0.037200
     76 H291       -10.8300   -14.7400    19.7280 ha         1 XSS       0.153000
     77 H311       -11.4020   -11.5150    15.9980 ha         1 XSS       0.172000
     78 H331        -9.6830   -12.5930    19.7960 ha         1 XSS       0.144000
     79 H412        -7.7030   -20.5610    15.8180 hc         1 XSS       0.088450
     80 H411        -8.2370   -19.6110    17.2770 hc         1 XSS       0.088450
     81 H421        -6.2600   -22.0120    17.2620 hc         1 XSS       0.088450
     82 H422        -6.7790   -21.0880    18.7410 hc         1 XSS       0.088450
     83 H431        -9.2310   -20.7880    19.2560 hc         1 XSS       0.053033
     84 H432       -10.4860   -21.5660    18.3010 hc         1 XSS       0.053033
     85 H433        -9.4130   -22.5380    19.3190 hc         1 XSS       0.053033
     86 H441       -12.8760   -25.8340    14.2960 ha         1 XSS       0.141000
     87 H451       -14.5490   -26.5540    15.7710 ha         1 XSS       0.119000
     88 H462       -15.5360   -23.6340    15.8050 hc         1 XSS       0.046200
     89 H461       -16.5700   -25.0450    15.8910 hc         1 XSS       0.046200
     90 H472       -15.5100   -25.7110    18.0420 hc         1 XSS       0.048700
     91 H471       -14.4660   -24.3090    17.9690 hc         1 XSS       0.048700
     92 H492       -19.0070   -16.1030    14.7100 hc         1 XSS       0.067367
     93 H493       -20.1990   -15.6880    13.4930 hc         1 XSS       0.067367
     94 H491       -20.6420   -16.7590    14.8250 hc         1 XSS       0.067367
     95 H503       -17.3850   -16.9330    13.0170 hc         1 XSS       0.067367
     96 H502       -17.8200   -18.2070    11.8770 hc         1 XSS       0.067367
     97 H501       -18.4670   -16.5750    11.6870 hc         1 XSS       0.067367
     98 H591        -8.6450    -9.3300    18.7020 h1         1 XSS       0.045367
     99 H593        -9.5400   -10.2860    19.8950 h1         1 XSS       0.045367
    100 H592        -8.1650   -11.0050    19.0240 h1         1 XSS       0.045367
    101 H101       -12.3760   -20.8070    13.9590 hn         1 XSS       0.325500
    102 H171       -18.8000   -20.8320    15.2870 hn         1 XSS       0.341500
    103 H351       -10.3340   -21.6510    15.6980 hn         1 XSS       0.337500
@<TRIPOS>BOND
     1     1    12 1   
     2     1    14 1   
     3     1    29 1   
     4     1    60 1   
     5     2    11 1   
     6     2    15 1   
     7     2    46 1   
     8     2    61 1   
     9     3    15 1   
    10     3    17 1   
    11     3    62 1   
    12     3    63 1   
    13     4    18 ar  
    14     4    47 ar  
    15     4    50 1   
    16     5    19 ar  
    17     5    21 ar  
    18     5    48 ar  
    19     6     7 1   
    20     6     8 1   
    21     6    44 1   
    22     6    64 1   
    23     7     9 1   
    24     7    65 1   
    25     7    66 1   
    26     8    45 1   
    27     8    51 2   
    28     9    10 1   
    29     9    50 1   
    30     9    67 1   
    31    10    44 1   
    32    10    68 1   
    33    10    69 1   
    34    11    44 1   
    35    11    52 2   
    36    12    13 1   
    37    12    14 1   
    38    12    45 1   
    39    13    49 1   
    40    13    55 2   
    41    14    70 1   
    42    14    71 1   
    43    15    72 1   
    44    15    73 1   
    45    16    46 1   
    46    16    53 1   
    47    16    54 2   
    48    17    32 1   
    49    17    74 1   
    50    17    75 1   
    51    18    22 1   
    52    18    48 ar  
    53    19    20 ar  
    54    19    47 ar  
    55    20    23 ar  
    56    20    76 1   
    57    21    24 ar  
    58    21    77 1   
    59    22    38 1   
    60    22    39 1   
    61    22    40 1   
    62    23    24 ar  
    63    23    78 1   
    64    24    58 1   
    65    25    26 1   
    66    25    27 1   
    67    25    28 1   
    68    25    59 1   
    69    26    27 1   
    70    26    79 1   
    71    26    80 1   
    72    27    81 1   
    73    27    82 1   
    74    28    83 1   
    75    28    84 1   
    76    28    85 1   
    77    29    30 2   
    78    29    86 1   
    79    30    31 1   
    80    30    87 1   
    81    31    32 1   
    82    31    88 1   
    83    31    89 1   
    84    32    90 1   
    85    32    91 1   
    86    33    34 1   
    87    33    35 1   
    88    33    36 1   
    89    33    53 1   
    90    34    92 1   
    91    34    93 1   
    92    34    94 1   
    93    35    95 1   
    94    35    96 1   
    95    35    97 1   
    96    36    41 1   
    97    36    42 1   
    98    36    43 1   
    99    37    58 1   
   100    37    98 1   
   101    37    99 1   
   102    37   100 1   
   103    45   101 1   
   104    46   102 1   
   105    49    59 1   
   106    49   103 1   
   107    56    59 2   
   108    57    59 2   
@<TRIPOS>SUBSTRUCTURE
     1 XSS         1 TEMP              0 ****  ****    0 ROOT
