@<TRIPOS>MOLECULE
XSS
  103   108     1     0     0
SMALL
No Charge or Current Charge


@<TRIPOS>ATOM
      1 C13        -13.0280   -23.3470    14.0640 cx         1 XSS      -0.034500
      2 C15        -17.2920   -19.9630    16.0220 c3         1 XSS       0.068700
      3 C22        -16.7270   -21.8780    17.7190 c3         1 XSS      -0.078400
      4 C24        -12.6530   -15.6900    16.5440 ca         1 XSS       0.574300
      5 C28        -10.4820   -14.0230    16.4890 ca         1 XSS       0.222000
      6 C01        -13.4030   -19.3790    16.1630 c5         1 XSS       0.033700
      7 C02        -12.7970   -18.5830    17.3620 c5         1 XSS      -0.109400
      8 C04        -12.9230   -20.8600    16.2440 c          1 XSS       0.591100
      9 C05        -13.8460   -17.4580    17.6010 c5         1 XSS       0.163300
     10 C06        -15.1870   -18.2320    17.4480 c5         1 XSS       0.106000
     11 C08        -15.8170   -19.7960    15.5370 c          1 XSS       0.604100
     12 C11        -11.9130   -22.6120    14.7960 cx         1 XSS      -0.070600
     13 C12        -10.9700   -23.3230    15.7870 c          1 XSS       0.677100
     14 C14        -11.7410   -23.0230    13.3470 cx         1 XSS      -0.093400
     15 C18        -17.5650   -21.4160    16.4980 c3         1 XSS      -0.090400
     16 C19        -19.5130   -19.2490    15.0680 c          1 XSS       0.656100
     17 C23        -16.7570   -23.4100    17.9700 c3         1 XSS      -0.066400
     18 C25        -12.1580   -15.1320    15.3250 ca         1 XSS       0.211300
     19 C27        -10.9910   -14.5650    17.7130 ca         1 XSS       0.256000
     20 C29        -10.3470   -14.2360    18.9200 ca         1 XSS      -0.061000
     21 C31         -9.3580   -13.1800    16.5220 ca         1 XSS      -0.103000
     22 C32        -12.8410   -15.4620    13.9870 c3         1 XSS       0.279700
     23 C33         -9.2230   -13.3920    18.9390 ca         1 XSS      -0.150000
     24 C34         -8.7240   -12.8600    17.7320 ca         1 XSS       0.139100
     25 C40         -8.2080   -21.1500    17.8350 cx         1 XSS      -0.401000
     26 C41         -7.2130   -20.4500    16.9250 cx         1 XSS      -0.077900
     27 C42         -6.7630   -20.9810    18.2700 cx         1 XSS      -0.077900
     28 C43         -9.3090   -20.3340    18.5250 c3         1 XSS      -0.043100
     29 C44        -13.4190   -24.7400    14.4340 c2         1 XSS      -0.191200
     30 C45        -14.4940   -25.0820    15.1700 c2         1 XSS      -0.189200
     31 C46        -15.5390   -24.1460    15.7620 c3         1 XSS      -0.048200
     32 C47        -15.6110   -24.2240    17.3040 c3         1 XSS      -0.074400
     33 C48        -21.4200   -18.6440    13.5950 c3         1 XSS       0.172000
     34 C49        -22.3640   -19.7390    14.1730 c3         1 XSS      -0.127100
     35 C50        -21.6540   -17.2600    14.2660 c3         1 XSS      -0.127100
     36 C51        -21.5830   -18.5390    12.0320 c3         1 XSS       0.301000
     37 C59         -6.9030   -11.6370    18.8670 c3         1 XSS       0.147900
     38 F52        -14.1410   -15.0860    13.9770 f          1 XSS      -0.098000
     39 F53        -12.2590   -14.8480    12.9270 f          1 XSS      -0.098000
     40 F54        -12.8110   -16.7880    13.7210 f          1 XSS      -0.098000
     41 F55        -20.7300   -17.6260    11.5070 f          1 XSS      -0.109333
     42 F56        -21.3300   -19.7240    11.4280 f          1 XSS      -0.109333
     43 F57        -22.8380   -18.1660    11.6860 f          1 XSS      -0.109333
     44 N03        -14.8620   -19.2470    16.4180 n          1 XSS      -0.388800
     45 N10        -12.2570   -21.2290    15.0890 ns         1 XSS      -0.471900
     46 N17        -18.2100   -19.6200    14.9190 ns         1 XSS      -0.487900
     47 N26        -12.0730   -15.3850    17.7380 nb         1 XSS      -0.733000
     48 N30        -11.0680   -14.3040    15.2980 nb         1 XSS      -0.565000
     49 N35         -9.9710   -22.5180    16.2200 ns         1 XSS      -0.566300
     50 O07        -13.7840   -16.4990    16.4990 os         1 XSS      -0.443300
     51 O09        -13.0820   -21.6250    17.1850 o          1 XSS      -0.571100
     52 O16        -15.4670   -20.2050    14.4340 o          1 XSS      -0.614100
     53 O20        -20.0400   -19.0480    13.8220 os         1 XSS      -0.467100
     54 O21        -20.0780   -19.1230    16.1420 o          1 XSS      -0.537000
     55 O36        -11.0730   -24.4900    16.1360 o          1 XSS      -0.548100
     56 O38         -7.7230   -23.5680    16.6870 o          1 XSS      -0.514000
     57 O39         -9.4720   -23.4620    18.5300 o          1 XSS      -0.514000
     58 O58         -7.6250   -12.0270    17.6840 os         1 XSS      -0.334100
     59 S37         -8.8160   -22.8610    17.3630 s6         1 XSS       1.250800
     60 H131       -13.8800   -22.7460    13.7520 hc         1 XSS       0.103700
     61 H151       -17.4790   -19.2750    16.8540 h1         1 XSS       0.069700
     62 H222       -15.6850   -21.5600    17.6200 hc         1 XSS       0.049200
     63 H221       -17.1150   -21.3670    18.6090 hc         1 XSS       0.049200
     64 H011       -13.1320   -18.9360    15.1970 h1         1 XSS       0.082700
     65 H021       -12.7170   -19.2040    18.2620 hc         1 XSS       0.074200
     66 H022       -11.7880   -18.2100    17.1510 hc         1 XSS       0.074200
     67 H051       -13.7750   -16.9610    18.5790 h1         1 XSS       0.096700
     68 H061       -16.0000   -17.5620    17.1370 h1         1 XSS       0.075200
     69 H062       -15.4760   -18.7150    18.3910 h1         1 XSS       0.075200
     70 H142       -11.0650   -23.8460    13.1240 hc         1 XSS       0.088200
     71 H141       -11.7660   -22.2450    12.5880 hc         1 XSS       0.088200
     72 H181       -18.6260   -21.5160    16.7560 hc         1 XSS       0.058700
     73 H182       -17.3990   -22.0900    15.6510 hc         1 XSS       0.058700
     74 H232       -17.7280   -23.8170    17.6600 hc         1 XSS       0.037200
     75 H231       -16.6920   -23.5770    19.0520 hc         1 XSS       0.037200
     76 H291       -10.7280   -14.6430    19.8530 ha         1 XSS       0.135000
     77 H311        -8.9720   -12.7680    15.5950 ha         1 XSS       0.154000
     78 H331        -8.7570   -13.1650    19.8930 ha         1 XSS       0.126000
     79 H412        -6.8600   -20.9710    16.0370 hc         1 XSS       0.088450
     80 H411        -7.2890   -19.3710    16.8110 hc         1 XSS       0.088450
     81 H421        -6.1140   -21.8550    18.2750 hc         1 XSS       0.088450
     82 H422        -6.5410   -20.2550    19.0490 hc         1 XSS       0.088450
     83 H431        -8.9570   -19.3290    18.7890 hc         1 XSS       0.053033
     84 H432       -10.1850   -20.2120    17.8770 hc         1 XSS       0.053033
     85 H433        -9.6410   -20.8170    19.4520 hc         1 XSS       0.053033
     86 H441       -12.7530   -25.5230    14.0650 ha         1 XSS       0.191000
     87 H451       -14.6820   -26.1370    15.3810 ha         1 XSS       0.169000
     88 H462       -15.3340   -23.1090    15.4770 hc         1 XSS       0.046200
     89 H461       -16.5230   -24.3960    15.3470 hc         1 XSS       0.046200
     90 H472       -15.7280   -25.2750    17.5960 hc         1 XSS       0.048700
     91 H471       -14.6500   -23.8960    17.7200 hc         1 XSS       0.048700
     92 H492       -22.3760   -19.7350    15.2680 hc         1 XSS       0.067367
     93 H493       -23.3970   -19.5750    13.8430 hc         1 XSS       0.067367
     94 H491       -22.0570   -20.7370    13.8370 hc         1 XSS       0.067367
     95 H503       -21.6900   -17.3330    15.3590 hc         1 XSS       0.067367
     96 H502       -20.8600   -16.5540    13.9960 hc         1 XSS       0.067367
     97 H501       -22.6110   -16.8300    13.9460 hc         1 XSS       0.067367
     98 H591        -6.0690   -10.9760    18.6020 h1         1 XSS       0.045367
     99 H593        -7.5570   -11.0970    19.5630 h1         1 XSS       0.045367
    100 H592        -6.4890   -12.5160    19.3790 h1         1 XSS       0.045367
    101 H101       -12.1840   -20.5280    14.3590 hn         1 XSS       0.325500
    102 H171       -17.8750   -19.6840    13.9650 hn         1 XSS       0.341500
    103 H351        -9.9210   -21.5720    15.8880 hn         1 XSS       0.337500
@<TRIPOS>BOND
     1     1    12 1   
     2     1    14 1   
     3     1    29 1   
     4     1    60 1   
     5     2    11 1   
     6     2    15 1   
     7     2    46 1   
     8     2    61 1   
     9     3    15 1   
    10     3    17 1   
    11     3    62 1   
    12     3    63 1   
    13     4    18 ar  
    14     4    47 ar  
    15     4    50 1   
    16     5    19 ar  
    17     5    21 ar  
    18     5    48 ar  
    19     6     7 1   
    20     6     8 1   
    21     6    44 1   
    22     6    64 1   
    23     7     9 1   
    24     7    65 1   
    25     7    66 1   
    26     8    45 1   
    27     8    51 2   
    28     9    10 1   
    29     9    50 1   
    30     9    67 1   
    31    10    44 1   
    32    10    68 1   
    33    10    69 1   
    34    11    44 1   
    35    11    52 2   
    36    12    13 1   
    37    12    14 1   
    38    12    45 1   
    39    13    49 1   
    40    13    55 2   
    41    14    70 1   
    42    14    71 1   
    43    15    72 1   
    44    15    73 1   
    45    16    46 1   
    46    16    53 1   
    47    16    54 2   
    48    17    32 1   
    49    17    74 1   
    50    17    75 1   
    51    18    22 1   
    52    18    48 ar  
    53    19    20 ar  
    54    19    47 ar  
    55    20    23 ar  
    56    20    76 1   
    57    21    24 ar  
    58    21    77 1   
    59    22    38 1   
    60    22    39 1   
    61    22    40 1   
    62    23    24 ar  
    63    23    78 1   
    64    24    58 1   
    65    25    26 1   
    66    25    27 1   
    67    25    28 1   
    68    25    59 1   
    69    26    27 1   
    70    26    79 1   
    71    26    80 1   
    72    27    81 1   
    73    27    82 1   
    74    28    83 1   
    75    28    84 1   
    76    28    85 1   
    77    29    30 2   
    78    29    86 1   
    79    30    31 1   
    80    30    87 1   
    81    31    32 1   
    82    31    88 1   
    83    31    89 1   
    84    32    90 1   
    85    32    91 1   
    86    33    34 1   
    87    33    35 1   
    88    33    36 1   
    89    33    53 1   
    90    34    92 1   
    91    34    93 1   
    92    34    94 1   
    93    35    95 1   
    94    35    96 1   
    95    35    97 1   
    96    36    41 1   
    97    36    42 1   
    98    36    43 1   
    99    37    58 1   
   100    37    98 1   
   101    37    99 1   
   102    37   100 1   
   103    45   101 1   
   104    46   102 1   
   105    49    59 1   
   106    49   103 1   
   107    56    59 2   
   108    57    59 2   
@<TRIPOS>SUBSTRUCTURE
     1 XSS         1 TEMP              0 ****  ****    0 ROOT
