@<TRIPOS>MOLECULE
XSV
  104   110     1     0     0
SMALL
abcg2


@<TRIPOS>ATOM
      1 C13        -12.8520   -23.7620    14.1300 cx         1 XSV      -0.035500
      2 C15        -17.2300   -20.8140    16.2190 c3         1 XSV       0.069700
      3 C22        -16.5610   -22.7960    17.6770 c3         1 XSV      -0.080400
      4 C24        -13.6150   -15.9850    16.7910 ca         1 XSV       0.573300
      5 C28        -12.2110   -13.6990    16.6050 ca         1 XSV       0.221000
      6 C01        -13.5550   -19.8050    15.9700 c5         1 XSV       0.033700
      7 C02        -12.8810   -18.9710    17.0660 c5         1 XSV      -0.112400
      8 C04        -12.9530   -21.2010    15.8910 c          1 XSV       0.587100
      9 C05        -14.0210   -18.1560    17.6550 c5         1 XSV       0.169300
     10 C06        -15.1780   -19.1340    17.6300 c5         1 XSV       0.109000
     11 C08        -15.8230   -20.5730    15.6640 c          1 XSV       0.612100
     12 C11        -11.7440   -22.8010    14.5750 cx         1 XSV      -0.065600
     13 C12        -10.6210   -23.3160    15.4120 c          1 XSV       0.678100
     14 C14        -11.8240   -23.3040    13.1600 cx         1 XSV      -0.096400
     15 C18        -17.4050   -22.3080    16.5040 c3         1 XSV      -0.089400
     16 C19        -18.3570   -19.1040    14.9330 c          1 XSV       0.644100
     17 C23        -16.5700   -24.3220    17.8470 c3         1 XSV      -0.066400
     18 C25        -14.0090   -14.9140    15.9220 ca         1 XSV       0.212300
     19 C27        -11.8360   -14.7510    17.4690 ca         1 XSV       0.255000
     20 C29        -10.6810   -14.5950    18.2520 ca         1 XSV      -0.064000
     21 C31        -11.4440   -12.5290    16.5260 ca         1 XSV      -0.102000
     22 C32        -15.2470   -15.0230    15.0650 c3         1 XSV       0.281700
     23 C33         -9.9340   -13.4480    18.1710 ca         1 XSV      -0.151000
     24 C34        -10.3090   -12.4000    17.2980 ca         1 XSV       0.137100
     25 C40         -8.5410   -21.2240    18.0420 cx         1 XSV      -0.405000
     26 C41         -7.1240   -20.8430    18.3620 cx         1 XSV      -0.076900
     27 C42         -7.8460   -20.1470    17.2590 cx         1 XSV      -0.076900
     28 C43         -9.6550   -20.8990    19.0030 c3         1 XSV      -0.040100
     29 C44        -12.9820   -25.1670    14.5650 c2         1 XSV      -0.188200
     30 C45        -14.0340   -25.6650    15.2180 c2         1 XSV      -0.190200
     31 C46        -15.2360   -24.9290    15.7220 c3         1 XSV      -0.047200
     32 C47        -15.3580   -25.0330    17.2440 c3         1 XSV      -0.074400
     33 C48        -19.8230   -17.6310    13.7290 cy         1 XSV       0.118000
     34 C49        -21.3500   -17.5260    13.5560 cy         1 XSV      -0.082400
     35 C50        -19.8930   -16.4900    14.7630 cy         1 XSV      -0.082400
     36 C51        -19.0720   -17.2780    12.4510 c3         1 XSV       0.293000
     37 C59         -8.4330   -11.0800    17.9310 c3         1 XSV       0.148900
     38 C60        -21.3140   -16.1600    14.2680 cy         1 XSV      -0.094400
     39 F52        -15.4330   -13.9270    14.3380 f          1 XSV      -0.095000
     40 F53        -16.3410   -15.1960    15.8140 f          1 XSV      -0.095000
     41 F54        -15.1640   -16.0550    14.2230 f          1 XSV      -0.095000
     42 F55        -19.2640   -18.2060    11.5070 f          1 XSV      -0.107333
     43 F56        -17.7530   -17.1770    12.6330 f          1 XSV      -0.107333
     44 F57        -19.4860   -16.1090    11.9490 f          1 XSV      -0.107333
     45 N03        -14.9380   -19.8950    16.4120 n          1 XSV      -0.389800
     46 N10        -12.1640   -21.4620    14.8230 ns         1 XSV      -0.476900
     47 N17        -18.2180   -20.4000    15.2510 ns         1 XSV      -0.489900
     48 N26        -12.5660   -15.8880    17.5380 nb         1 XSV      -0.739000
     49 N30        -13.3260   -13.8220    15.8410 nb         1 XSV      -0.565000
     50 N35         -9.9970   -22.3700    16.1800 ns         1 XSV      -0.571300
     51 O07        -14.3830   -17.0680    16.7960 os         1 XSV      -0.432300
     52 O09        -13.1340   -22.0180    16.7730 o          1 XSV      -0.570100
     53 O16        -15.5020   -21.0470    14.5830 o          1 XSV      -0.604100
     54 O20        -19.4140   -18.9270    14.1200 os         1 XSV      -0.446100
     55 O21        -17.6290   -18.2220    15.3320 o          1 XSV      -0.521000
     56 O36        -10.2610   -24.4720    15.4100 o          1 XSV      -0.547100
     57 O38         -9.2200   -23.7700    18.1620 o          1 XSV      -0.513000
     58 O39         -7.5510   -23.0890    16.4330 o          1 XSV      -0.513000
     59 O58         -9.6130   -11.2610    17.1700 os         1 XSV      -0.335100
     60 S37         -8.7320   -22.7790    17.2210 s6         1 XSV       1.253800
     61 H131       -13.7900   -23.2240    14.0590 hc         1 XSV       0.100700
     62 H151       -17.3880   -20.2700    17.1540 h1         1 XSV       0.062700
     63 H221       -15.5270   -22.4560    17.5770 hc         1 XSV       0.050200
     64 H222       -16.9410   -22.3200    18.5850 hc         1 XSV       0.050200
     65 H011       -13.4960   -19.2960    15.0030 h1         1 XSV       0.084700
     66 H022       -12.4900   -19.6130    17.8580 hc         1 XSV       0.075200
     67 H021       -12.0530   -18.3770    16.6850 hc         1 XSV       0.075200
     68 H051       -13.8100   -17.7870    18.6590 h1         1 XSV       0.086700
     69 H062       -16.1420   -18.6300    17.6160 h1         1 XSV       0.075200
     70 H061       -15.1320   -19.7690    18.5190 h1         1 XSV       0.075200
     71 H142       -11.0590   -24.0070    12.8560 hc         1 XSV       0.087200
     72 H141       -12.1050   -22.5860    12.4000 hc         1 XSV       0.087200
     73 H182       -18.4600   -22.4880    16.7310 hc         1 XSV       0.057700
     74 H181       -17.1830   -22.8710    15.5950 hc         1 XSV       0.057700
     75 H232       -17.4910   -24.7410    17.4270 hc         1 XSV       0.036700
     76 H231       -16.5960   -24.5620    18.9130 hc         1 XSV       0.036700
     77 H291       -10.3860   -15.3950    18.9190 ha         1 XSV       0.132000
     78 H311       -11.7500   -11.7370    15.8530 ha         1 XSV       0.154000
     79 H331        -9.0500   -13.3630    18.7880 ha         1 XSV       0.125000
     80 H411        -6.3200   -21.5170    18.0980 hc         1 XSV       0.088700
     81 H412        -6.9890   -20.3290    19.3050 hc         1 XSV       0.088700
     82 H421        -7.5350   -20.3510    16.2420 hc         1 XSV       0.088700
     83 H422        -8.2130   -19.1420    17.4210 hc         1 XSV       0.088700
     84 H432        -9.4760   -19.9130    19.4310 hc         1 XSV       0.051367
     85 H433       -10.6270   -20.8710    18.5120 hc         1 XSV       0.051367
     86 H431        -9.7000   -21.6160    19.8200 hc         1 XSV       0.051367
     87 H441       -12.1820   -25.8430    14.2920 ha         1 XSV       0.189000
     88 H451       -14.0200   -26.7300    15.4380 ha         1 XSV       0.168000
     89 H461       -15.2070   -23.8820    15.4200 hc         1 XSV       0.046200
     90 H462       -16.1380   -25.3570    15.2690 hc         1 XSV       0.046200
     91 H471       -15.3950   -26.0900    17.5230 hc         1 XSV       0.048200
     92 H472       -14.4490   -24.6310    17.7010 hc         1 XSV       0.048200
     93 H491       -21.7560   -17.5750    12.5460 hc         1 XSV       0.077200
     94 H492       -21.8390   -18.2870    14.1630 hc         1 XSV       0.077200
     95 H501       -19.9130   -16.8890    15.7760 hc         1 XSV       0.077200
     96 H502       -19.1290   -15.7160    14.7150 hc         1 XSV       0.077200
     97 H592        -8.0430   -10.1020    17.6600 h1         1 XSV       0.045033
     98 H593        -8.6320   -11.0930    19.0050 h1         1 XSV       0.045033
     99 H591        -7.6780   -11.8350    17.6990 h1         1 XSV       0.045033
    100 H602       -21.3490   -15.3160    13.5820 hc         1 XSV       0.063700
    101 H601       -22.0640   -16.0050    15.0410 hc         1 XSV       0.063700
    102 H101       -12.0820   -20.7820    14.0810 hn         1 XSV       0.326500
    103 H171       -18.8720   -21.0790    14.8970 hn         1 XSV       0.341500
    104 H351       -10.1970   -21.3850    16.0460 hn         1 XSV       0.339500
@<TRIPOS>BOND
     1     1    12 1   
     2     1    14 1   
     3     1    29 1   
     4     1    61 1   
     5     2    11 1   
     6     2    15 1   
     7     2    47 1   
     8     2    62 1   
     9     3    15 1   
    10     3    17 1   
    11     3    63 1   
    12     3    64 1   
    13     4    18 ar  
    14     4    48 ar  
    15     4    51 1   
    16     5    19 ar  
    17     5    21 ar  
    18     5    49 ar  
    19     6     7 1   
    20     6     8 1   
    21     6    45 1   
    22     6    65 1   
    23     7     9 1   
    24     7    66 1   
    25     7    67 1   
    26     8    46 1   
    27     8    52 2   
    28     9    10 1   
    29     9    51 1   
    30     9    68 1   
    31    10    45 1   
    32    10    69 1   
    33    10    70 1   
    34    11    45 1   
    35    11    53 2   
    36    12    13 1   
    37    12    14 1   
    38    12    46 1   
    39    13    50 1   
    40    13    56 2   
    41    14    71 1   
    42    14    72 1   
    43    15    73 1   
    44    15    74 1   
    45    16    47 1   
    46    16    54 1   
    47    16    55 2   
    48    17    32 1   
    49    17    75 1   
    50    17    76 1   
    51    18    22 1   
    52    18    49 ar  
    53    19    20 ar  
    54    19    48 ar  
    55    20    23 ar  
    56    20    77 1   
    57    21    24 ar  
    58    21    78 1   
    59    22    39 1   
    60    22    40 1   
    61    22    41 1   
    62    23    24 ar  
    63    23    79 1   
    64    24    59 1   
    65    25    26 1   
    66    25    27 1   
    67    25    28 1   
    68    25    60 1   
    69    26    27 1   
    70    26    80 1   
    71    26    81 1   
    72    27    82 1   
    73    27    83 1   
    74    28    84 1   
    75    28    85 1   
    76    28    86 1   
    77    29    30 2   
    78    29    87 1   
    79    30    31 1   
    80    30    88 1   
    81    31    32 1   
    82    31    89 1   
    83    31    90 1   
    84    32    91 1   
    85    32    92 1   
    86    33    34 1   
    87    33    35 1   
    88    33    36 1   
    89    33    54 1   
    90    34    38 1   
    91    34    93 1   
    92    34    94 1   
    93    35    38 1   
    94    35    95 1   
    95    35    96 1   
    96    36    42 1   
    97    36    43 1   
    98    36    44 1   
    99    37    59 1   
   100    37    97 1   
   101    37    98 1   
   102    37    99 1   
   103    38   100 1   
   104    38   101 1   
   105    46   102 1   
   106    47   103 1   
   107    50    60 1   
   108    50   104 1   
   109    57    60 2   
   110    58    60 2   
@<TRIPOS>SUBSTRUCTURE
     1 XSV         1 TEMP              0 ****  ****    0 ROOT
