@<TRIPOS>MOLECULE
XSV
  104   110     1     0     0
SMALL
No Charge or Current Charge


@<TRIPOS>ATOM
      1 C13        -12.9120   -23.4810    13.9130 cx         1 XSV      -0.035500
      2 C15        -17.4470   -20.7700    16.3730 c3         1 XSV       0.069700
      3 C22        -16.6060   -22.7630    17.8240 c3         1 XSV      -0.080400
      4 C24        -13.3640   -15.9740    16.6540 ca         1 XSV       0.573300
      5 C28        -11.4430   -14.0350    16.4420 ca         1 XSV       0.221000
      6 C01        -13.6620   -19.7120    16.2530 c5         1 XSV       0.033700
      7 C02        -13.0700   -18.8730    17.4290 c5         1 XSV      -0.112400
      8 C04        -13.0040   -21.1260    16.2480 c          1 XSV       0.587100
      9 C05        -14.2300   -17.8920    17.7710 c5         1 XSV       0.169300
     10 C06        -15.4700   -18.8270    17.7000 c5         1 XSV       0.109000
     11 C08        -16.0420   -20.4180    15.7900 c          1 XSV       0.612100
     12 C11        -11.8650   -22.6760    14.6710 cx         1 XSV      -0.065600
     13 C12        -10.8260   -23.3410    15.5950 c          1 XSV       0.678100
     14 C14        -11.6880   -22.9690    13.1940 cx         1 XSV      -0.096400
     15 C18        -17.5530   -22.2830    16.6930 c3         1 XSV      -0.089400
     16 C19        -18.9930   -19.1230    15.2830 c          1 XSV       0.644100
     17 C23        -16.4540   -24.3030    17.9220 c3         1 XSV      -0.066400
     18 C25        -13.0840   -15.3190    15.4150 ca         1 XSV       0.212300
     19 C27        -11.7370   -14.6780    17.6880 ca         1 XSV       0.255000
     20 C29        -11.0090   -14.3050    18.8320 ca         1 XSV      -0.064000
     21 C31        -10.4380   -13.0540    16.3930 ca         1 XSV      -0.102000
     22 C32        -13.8680   -15.6930    14.1460 c3         1 XSV       0.281700
     23 C33        -10.0060   -13.3220    18.7680 ca         1 XSV      -0.151000
     24 C34         -9.7180   -12.6920    17.5400 ca         1 XSV       0.137100
     25 C40         -8.2150   -21.0100    17.6620 cx         1 XSV      -0.405000
     26 C41         -6.7820   -20.7280    18.0770 cx         1 XSV      -0.076900
     27 C42         -7.3070   -20.1870    16.7650 cx         1 XSV      -0.076900
     28 C43         -9.3690   -20.3250    18.4060 c3         1 XSV      -0.040100
     29 C44        -13.1330   -24.9330    14.1810 c2         1 XSV      -0.188200
     30 C45        -14.1340   -25.4500    14.9180 c2         1 XSV      -0.190200
     31 C46        -15.2500   -24.6890    15.6200 c3         1 XSV      -0.047200
     32 C47        -15.2470   -24.9080    17.1500 c3         1 XSV      -0.074400
     33 C48        -20.4420   -17.8430    13.8210 cy         1 XSV       0.118000
     34 C49        -21.8640   -18.0720    13.1820 cy         1 XSV      -0.082400
     35 C50        -21.2250   -17.0690    14.9540 cy         1 XSV      -0.082400
     36 C51        -19.3940   -17.0590    12.9410 c3         1 XSV       0.293000
     37 C59         -7.9510   -11.2760    18.5270 c3         1 XSV       0.148900
     38 C60        -22.3530   -16.7810    13.9150 cy         1 XSV      -0.094400
     39 F52        -13.4840   -14.9850    13.0550 f          1 XSV      -0.095000
     40 F53        -15.1970   -15.4760    14.2910 f          1 XSV      -0.095000
     41 F54        -13.7130   -16.9990    13.8260 f          1 XSV      -0.095000
     42 F55        -18.9070   -17.8750    11.9770 f          1 XSV      -0.107333
     43 F56        -18.3570   -16.6180    13.6890 f          1 XSV      -0.107333
     44 F57        -19.9550   -15.9870    12.3370 f          1 XSV      -0.107333
     45 N03        -15.1010   -19.7690    16.6170 n          1 XSV      -0.389800
     46 N10        -12.3430   -21.3560    15.0560 ns         1 XSV      -0.476900
     47 N17        -18.4900   -20.3850    15.4050 ns         1 XSV      -0.489900
     48 N26        -12.6960   -15.6340    17.7920 nb         1 XSV      -0.739000
     49 N30        -12.1180   -14.3540    15.3090 nb         1 XSV      -0.565000
     50 N35         -9.8900   -22.4670    16.0340 ns         1 XSV      -0.571300
     51 O07        -14.3810   -16.9220    16.6890 os         1 XSV      -0.432300
     52 O09        -13.0450   -21.9500    17.1510 o          1 XSV      -0.570100
     53 O16        -15.7170   -20.7740    14.6620 o          1 XSV      -0.604100
     54 O20        -19.8790   -19.1100    14.2410 os         1 XSV      -0.446100
     55 O21        -18.6810   -18.1870    16.0010 o          1 XSV      -0.521000
     56 O36        -10.8130   -24.5270    15.8930 o          1 XSV      -0.547100
     57 O38         -9.2410   -23.4550    18.2870 o          1 XSV      -0.513000
     58 O39         -7.5430   -23.3230    16.3990 o          1 XSV      -0.513000
     59 O58         -8.7460   -11.7200    17.4130 os         1 XSV      -0.335100
     60 S37         -8.6770   -22.7480    17.1320 s6         1 XSV       1.253800
     61 H131       -13.8340   -22.9600    13.6640 hc         1 XSV       0.100700
     62 H151       -17.6120   -20.2090    17.3000 h1         1 XSV       0.062700
     63 H221       -15.6130   -22.3160    17.7140 hc         1 XSV       0.050200
     64 H222       -17.0000   -22.3860    18.7770 hc         1 XSV       0.050200
     65 H011       -13.5220   -19.2160    15.2840 h1         1 XSV       0.084700
     66 H022       -12.8510   -19.5000    18.3020 hc         1 XSV       0.075200
     67 H021       -12.1330   -18.3750    17.1600 hc         1 XSV       0.075200
     68 H051       -14.1470   -17.3990    18.7500 h1         1 XSV       0.086700
     69 H062       -16.3840   -18.2620    17.4740 h1         1 XSV       0.075200
     70 H061       -15.6190   -19.3640    18.6470 h1         1 XSV       0.075200
     71 H142       -10.9310   -23.6930    12.9020 hc         1 XSV       0.087200
     72 H141       -11.8200   -22.1500    12.4900 hc         1 XSV       0.087200
     73 H182       -18.5850   -22.5160    16.9840 hc         1 XSV       0.057700
     74 H181       -17.3610   -22.8490    15.7740 hc         1 XSV       0.057700
     75 H232       -17.3820   -24.7900    17.5970 hc         1 XSV       0.036700
     76 H231       -16.3300   -24.5650    18.9800 hc         1 XSV       0.036700
     77 H291       -11.2270   -14.7880    19.7810 ha         1 XSV       0.132000
     78 H311       -10.2150   -12.5660    15.4490 ha         1 XSV       0.154000
     79 H331        -9.4680   -13.0650    19.6760 ha         1 XSV       0.125000
     80 H411        -6.0570   -21.5380    18.0330 hc         1 XSV       0.088700
     81 H412        -6.6080   -20.0160    18.8820 hc         1 XSV       0.088700
     82 H421        -6.9290   -20.6370    15.8490 hc         1 XSV       0.088700
     83 H422        -7.4820   -19.1150    16.6970 hc         1 XSV       0.088700
     84 H432        -9.1010   -19.3060    18.7100 hc         1 XSV       0.051367
     85 H433       -10.2650   -20.2520    17.7780 hc         1 XSV       0.051367
     86 H431        -9.6400   -20.8760    19.3150 hc         1 XSV       0.051367
     87 H441       -12.4010   -25.6050    13.7280 ha         1 XSV       0.189000
     88 H451       -14.1960   -26.5330    15.0460 ha         1 XSV       0.168000
     89 H461       -15.1720   -23.6150    15.4230 hc         1 XSV       0.046200
     90 H462       -16.2170   -25.0120    15.2160 hc         1 XSV       0.046200
     91 H471       -15.2250   -25.9870    17.3490 hc         1 XSV       0.048200
     92 H472       -14.3160   -24.5010    17.5640 hc         1 XSV       0.048200
     93 H491       -21.9080   -18.0460    12.0880 hc         1 XSV       0.077200
     94 H492       -22.3620   -18.9890    13.5200 hc         1 XSV       0.077200
     95 H501       -21.5470   -17.7000    15.7910 hc         1 XSV       0.077200
     96 H502       -20.7220   -16.1870    15.3660 hc         1 XSV       0.077200
     97 H592        -7.2430   -10.5020    18.2050 h1         1 XSV       0.045033
     98 H593        -8.5860   -10.8490    19.3140 h1         1 XSV       0.045033
     99 H591        -7.3740   -12.1080    18.9510 h1         1 XSV       0.045033
    100 H602       -22.2360   -15.8500    13.3490 hc         1 XSV       0.063700
    101 H601       -23.3770   -16.8160    14.3040 hc         1 XSV       0.063700
    102 H101       -12.3710   -20.6140    14.3660 hn         1 XSV       0.326500
    103 H171       -18.8190   -21.0610    14.7270 hn         1 XSV       0.341500
    104 H351        -9.9400   -21.5060    15.7480 hn         1 XSV       0.339500
@<TRIPOS>BOND
     1     1    12 1   
     2     1    14 1   
     3     1    29 1   
     4     1    61 1   
     5     2    11 1   
     6     2    15 1   
     7     2    47 1   
     8     2    62 1   
     9     3    15 1   
    10     3    17 1   
    11     3    63 1   
    12     3    64 1   
    13     4    18 ar  
    14     4    48 ar  
    15     4    51 1   
    16     5    19 ar  
    17     5    21 ar  
    18     5    49 ar  
    19     6     7 1   
    20     6     8 1   
    21     6    45 1   
    22     6    65 1   
    23     7     9 1   
    24     7    66 1   
    25     7    67 1   
    26     8    46 1   
    27     8    52 2   
    28     9    10 1   
    29     9    51 1   
    30     9    68 1   
    31    10    45 1   
    32    10    69 1   
    33    10    70 1   
    34    11    45 1   
    35    11    53 2   
    36    12    13 1   
    37    12    14 1   
    38    12    46 1   
    39    13    50 1   
    40    13    56 2   
    41    14    71 1   
    42    14    72 1   
    43    15    73 1   
    44    15    74 1   
    45    16    47 1   
    46    16    54 1   
    47    16    55 2   
    48    17    32 1   
    49    17    75 1   
    50    17    76 1   
    51    18    22 1   
    52    18    49 ar  
    53    19    20 ar  
    54    19    48 ar  
    55    20    23 ar  
    56    20    77 1   
    57    21    24 ar  
    58    21    78 1   
    59    22    39 1   
    60    22    40 1   
    61    22    41 1   
    62    23    24 ar  
    63    23    79 1   
    64    24    59 1   
    65    25    26 1   
    66    25    27 1   
    67    25    28 1   
    68    25    60 1   
    69    26    27 1   
    70    26    80 1   
    71    26    81 1   
    72    27    82 1   
    73    27    83 1   
    74    28    84 1   
    75    28    85 1   
    76    28    86 1   
    77    29    30 2   
    78    29    87 1   
    79    30    31 1   
    80    30    88 1   
    81    31    32 1   
    82    31    89 1   
    83    31    90 1   
    84    32    91 1   
    85    32    92 1   
    86    33    34 1   
    87    33    35 1   
    88    33    36 1   
    89    33    54 1   
    90    34    38 1   
    91    34    93 1   
    92    34    94 1   
    93    35    38 1   
    94    35    95 1   
    95    35    96 1   
    96    36    42 1   
    97    36    43 1   
    98    36    44 1   
    99    37    59 1   
   100    37    97 1   
   101    37    98 1   
   102    37    99 1   
   103    38   100 1   
   104    38   101 1   
   105    46   102 1   
   106    47   103 1   
   107    50    60 1   
   108    50   104 1   
   109    57    60 2   
   110    58    60 2   
@<TRIPOS>SUBSTRUCTURE
     1 XSV         1 TEMP              0 ****  ****    0 ROOT
