@<TRIPOS>MOLECULE
XSY
  105   112     1     0     0
SMALL
No Charge or Current Charge


@<TRIPOS>ATOM
      1 C13        -12.8710   -23.6220    13.9680 cx         1 XSY      -0.034500
      2 C15        -17.2960   -20.4340    15.9090 c3         1 XSY       0.066700
      3 C22        -16.6440   -22.3160    17.6100 c3         1 XSY      -0.079400
      4 C24        -12.8680   -15.9430    16.3960 ca         1 XSY       0.573300
      5 C28        -10.7800   -14.1740    16.3210 ca         1 XSY       0.221000
      6 C01        -13.4390   -19.6650    16.0450 c5         1 XSY       0.031700
      7 C02        -12.8710   -18.8320    17.2370 c5         1 XSY      -0.111400
      8 C04        -12.8900   -21.1220    16.1360 c          1 XSY       0.590100
      9 C05        -13.9730   -17.7580    17.4690 c5         1 XSY       0.168300
     10 C06        -15.2750   -18.5960    17.3240 c5         1 XSY       0.108000
     11 C08        -15.8310   -20.2000    15.4220 c          1 XSY       0.601100
     12 C11        -11.7950   -22.8320    14.7010 cx         1 XSY      -0.068600
     13 C12        -10.8240   -23.4940    15.6990 c          1 XSY       0.678100
     14 C14        -11.5980   -23.2410    13.2540 cx         1 XSY      -0.095400
     15 C18        -17.5010   -21.8970    16.3860 c3         1 XSY      -0.088400
     16 C19        -19.5450   -19.8050    14.9590 c          1 XSY       0.637100
     17 C23        -16.6030   -23.8460    17.8660 c3         1 XSY      -0.066400
     18 C25        -12.4060   -15.3690    15.1710 ca         1 XSY       0.212300
     19 C27        -11.2550   -14.7330    17.5510 ca         1 XSY       0.255000
     20 C29        -10.6220   -14.3670    18.7520 ca         1 XSY      -0.063000
     21 C31         -9.6960   -13.2790    16.3440 ca         1 XSY      -0.102000
     22 C32        -13.0810   -15.7380    13.8390 c3         1 XSY       0.281700
     23 C33         -9.5390   -13.4710    18.7600 ca         1 XSY      -0.150000
     24 C34         -9.0720   -12.9230    17.5480 ca         1 XSY       0.137100
     25 C40         -8.1720   -21.1850    17.7420 cx         1 XSY      -0.400000
     26 C41         -6.7380   -20.9460    18.1810 cx         1 XSY      -0.078400
     27 C42         -7.2080   -20.4440    16.8330 cx         1 XSY      -0.078400
     28 C43         -9.3120   -20.4170    18.4250 c3         1 XSY      -0.043100
     29 C44        -13.1980   -25.0300    14.3420 c2         1 XSY      -0.190200
     30 C45        -14.2570   -25.4200    15.0770 c2         1 XSY      -0.190200
     31 C46        -15.3460   -24.5310    15.6630 c3         1 XSY      -0.047200
     32 C47        -15.4180   -24.6070    17.2060 c3         1 XSY      -0.074400
     33 C48        -21.4800   -19.1950    13.7160 c5         1 XSY       0.186300
     34 C49        -21.5650   -17.6690    14.0820 c5         1 XSY      -0.063900
     35 C50        -21.6640   -16.9130    12.7440 cx         1 XSY      -0.132200
     36 C51        -21.9190   -17.8970    11.6420 cx         1 XSY      -0.132200
     37 C52        -21.9980   -19.3130    12.2430 c5         1 XSY      -0.063900
     38 C53        -20.5730   -17.2070    11.7340 cx         1 XSY      -0.111400
     39 C58         -7.3050   -11.6090    18.6660 c3         1 XSY       0.147900
     40 F54        -12.9900   -17.0630    13.5810 f          1 XSY      -0.096333
     41 F55        -12.5340   -15.1040    12.7730 f          1 XSY      -0.096333
     42 F56        -14.3970   -15.4240    13.8350 f          1 XSY      -0.096333
     43 N03        -14.9020   -19.6010    16.2990 n          1 XSY      -0.386800
     44 N10        -12.2050   -21.4650    14.9850 ns         1 XSY      -0.475900
     45 N17        -18.2300   -20.1330    14.8060 ns         1 XSY      -0.489900
     46 N26        -12.2970   -15.6040    17.5860 nb         1 XSY      -0.738000
     47 N30        -11.3570   -14.4900    15.1340 nb         1 XSY      -0.566000
     48 N35         -9.8640   -22.6410    16.1290 ns         1 XSY      -0.569300
     49 O07        -13.9600   -16.8050    16.3610 os         1 XSY      -0.434300
     50 O09        -13.0140   -21.8870    17.0820 o          1 XSY      -0.570100
     51 O16        -15.4620   -20.5980    14.3210 o          1 XSY      -0.619100
     52 O20        -20.0890   -19.6190    13.7200 os         1 XSY      -0.455100
     53 O21        -20.1170   -19.7000    16.0330 o          1 XSY      -0.546000
     54 O36        -10.8760   -24.6620    16.0560 o          1 XSY      -0.544100
     55 O38         -9.3300   -23.5490    18.4460 o          1 XSY      -0.515500
     56 O39         -7.5720   -23.5830    16.6090 o          1 XSY      -0.515500
     57 O57         -8.0140   -12.0380    17.4900 os         1 XSY      -0.335100
     58 S37         -8.6990   -22.9240    17.2780 s6         1 XSY       1.254800
     59 H131       -13.7500   -23.0630    13.6510 hc         1 XSY       0.101700
     60 H151       -17.5130   -19.7540    16.7410 h1         1 XSY       0.072700
     61 H221       -15.6180   -21.9490    17.5120 hc         1 XSY       0.048200
     62 H222       -17.0580   -21.8200    18.4980 hc         1 XSY       0.048200
     63 H011       -13.1900   -19.2170    15.0750 h1         1 XSY       0.080700
     64 H022       -12.7610   -19.4430    18.1420 hc         1 XSY       0.075700
     65 H021       -11.8820   -18.4130    17.0230 hc         1 XSY       0.075700
     66 H051       -13.9260   -17.2500    18.4430 h1         1 XSY       0.088700
     67 H062       -16.1200   -17.9690    17.0100 h1         1 XSY       0.077200
     68 H061       -15.5390   -19.0870    18.2700 h1         1 XSY       0.077200
     69 H141       -10.8830   -24.0320    13.0370 hc         1 XSY       0.088200
     70 H142       -11.6570   -22.4680    12.4910 hc         1 XSY       0.088200
     71 H181       -18.5570   -22.0460    16.6430 hc         1 XSY       0.057200
     72 H182       -17.3010   -22.5640    15.5410 hc         1 XSY       0.057200
     73 H231       -17.5520   -24.3000    17.5550 hc         1 XSY       0.037200
     74 H232       -16.5320   -24.0070    18.9490 hc         1 XSY       0.037200
     75 H291       -10.9780   -14.7870    19.6900 ha         1 XSY       0.133000
     76 H311        -9.3350   -12.8540    15.4120 ha         1 XSY       0.153000
     77 H331        -9.0790   -13.2160    19.7110 ha         1 XSY       0.125000
     78 H411        -6.0490   -21.7880    18.1920 hc         1 XSY       0.087950
     79 H412        -6.5530   -20.2060    18.9570 hc         1 XSY       0.087950
     80 H421        -6.8280   -20.9510    15.9480 hc         1 XSY       0.087950
     81 H422        -7.3340   -19.3700    16.7120 hc         1 XSY       0.087950
     82 H433        -9.0080   -19.3960    18.6850 hc         1 XSY       0.053700
     83 H432       -10.1910   -20.3400    17.7750 hc         1 XSY       0.053700
     84 H431        -9.6240   -20.9100    19.3540 hc         1 XSY       0.053700
     85 H441       -12.4950   -25.7820    13.9780 ha         1 XSY       0.190000
     86 H451       -14.3960   -26.4810    15.2920 ha         1 XSY       0.168000
     87 H462       -15.1890   -23.4870    15.3750 hc         1 XSY       0.046200
     88 H461       -16.3160   -24.8280    15.2470 hc         1 XSY       0.046200
     89 H472       -15.4850   -25.6620    17.5010 hc         1 XSY       0.047700
     90 H471       -14.4750   -24.2330    17.6220 hc         1 XSY       0.047700
     91 H481       -22.0600   -19.8340    14.3970 h1         1 XSY       0.071700
     92 H491       -20.7140   -17.3260    14.6810 hc         1 XSY       0.063200
     93 H492       -22.4580   -17.4830    14.6880 hc         1 XSY       0.063200
     94 H501       -22.1420   -15.9360    12.7030 hc         1 XSY       0.086700
     95 H511       -22.5770   -17.6150    10.8220 hc         1 XSY       0.086700
     96 H521       -23.0360   -19.6660    12.2410 hc         1 XSY       0.063200
     97 H522       -21.4260   -20.0440    11.6600 hc         1 XSY       0.063200
     98 H532       -20.3550   -16.4380    10.9970 hc         1 XSY       0.075700
     99 H531       -19.7020   -17.7780    12.0430 hc         1 XSY       0.075700
    100 H583        -6.5050   -10.9090    18.3930 h1         1 XSY       0.045033
    101 H582        -7.9800   -11.0970    19.3640 h1         1 XSY       0.045033
    102 H581        -6.8480   -12.4640    19.1800 h1         1 XSY       0.045033
    103 H101       -12.1630   -20.7660    14.2510 hn         1 XSY       0.325500
    104 H171       -17.8930   -20.1850    13.8520 hn         1 XSY       0.335500
    105 H351        -9.8560   -21.6960    15.7920 hn         1 XSY       0.337500
@<TRIPOS>BOND
     1     1    12 1   
     2     1    14 1   
     3     1    29 1   
     4     1    59 1   
     5     2    11 1   
     6     2    15 1   
     7     2    45 1   
     8     2    60 1   
     9     3    15 1   
    10     3    17 1   
    11     3    61 1   
    12     3    62 1   
    13     4    18 ar  
    14     4    46 ar  
    15     4    49 1   
    16     5    19 ar  
    17     5    21 ar  
    18     5    47 ar  
    19     6     7 1   
    20     6     8 1   
    21     6    43 1   
    22     6    63 1   
    23     7     9 1   
    24     7    64 1   
    25     7    65 1   
    26     8    44 1   
    27     8    50 2   
    28     9    10 1   
    29     9    49 1   
    30     9    66 1   
    31    10    43 1   
    32    10    67 1   
    33    10    68 1   
    34    11    43 1   
    35    11    51 2   
    36    12    13 1   
    37    12    14 1   
    38    12    44 1   
    39    13    48 1   
    40    13    54 2   
    41    14    69 1   
    42    14    70 1   
    43    15    71 1   
    44    15    72 1   
    45    16    45 1   
    46    16    52 1   
    47    16    53 2   
    48    17    32 1   
    49    17    73 1   
    50    17    74 1   
    51    18    22 1   
    52    18    47 ar  
    53    19    20 ar  
    54    19    46 ar  
    55    20    23 ar  
    56    20    75 1   
    57    21    24 ar  
    58    21    76 1   
    59    22    40 1   
    60    22    41 1   
    61    22    42 1   
    62    23    24 ar  
    63    23    77 1   
    64    24    57 1   
    65    25    26 1   
    66    25    27 1   
    67    25    28 1   
    68    25    58 1   
    69    26    27 1   
    70    26    78 1   
    71    26    79 1   
    72    27    80 1   
    73    27    81 1   
    74    28    82 1   
    75    28    83 1   
    76    28    84 1   
    77    29    30 2   
    78    29    85 1   
    79    30    31 1   
    80    30    86 1   
    81    31    32 1   
    82    31    87 1   
    83    31    88 1   
    84    32    89 1   
    85    32    90 1   
    86    33    34 1   
    87    33    37 1   
    88    33    52 1   
    89    33    91 1   
    90    34    35 1   
    91    34    92 1   
    92    34    93 1   
    93    35    36 1   
    94    35    38 1   
    95    35    94 1   
    96    36    37 1   
    97    36    38 1   
    98    36    95 1   
    99    37    96 1   
   100    37    97 1   
   101    38    98 1   
   102    38    99 1   
   103    39    57 1   
   104    39   100 1   
   105    39   101 1   
   106    39   102 1   
   107    44   103 1   
   108    45   104 1   
   109    48    58 1   
   110    48   105 1   
   111    55    58 2   
   112    56    58 2   
@<TRIPOS>SUBSTRUCTURE
     1 XSY         1 TEMP              0 ****  ****    0 ROOT
