@<TRIPOS>MOLECULE
XSY
  105   112     1     0     0
SMALL
bcc


@<TRIPOS>ATOM
      1 C13        -13.2650   -23.7330    14.0830 cx         1 XSY      -0.034500
      2 C15        -17.2990   -20.7460    16.5060 c3         1 XSY       0.066700
      3 C22        -16.5750   -22.7150    17.9540 c3         1 XSY      -0.079400
      4 C24        -13.5350   -16.0170    16.9330 ca         1 XSY       0.573300
      5 C28        -12.1340   -13.7300    16.7480 ca         1 XSY       0.286300
      6 C01        -13.6220   -19.8110    16.0380 c5         1 XSY       0.031700
      7 C02        -12.8560   -19.0350    17.1150 c5         1 XSY      -0.111400
      8 C04        -13.0640   -21.2140    15.8500 c          1 XSY       0.657100
      9 C05        -13.9350   -18.1970    17.7820 c5         1 XSY       0.145100
     10 C06        -15.1220   -19.1400    17.8130 c5         1 XSY       0.108000
     11 C08        -15.9130   -20.5510    15.8840 c          1 XSY       0.668100
     12 C11        -12.0790   -22.7960    14.3340 cx         1 XSY      -0.068600
     13 C12        -10.8250   -23.3380    14.9380 c          1 XSY       0.745100
     14 C14        -12.4210   -23.2730    12.9500 cx         1 XSY      -0.095400
     15 C18        -17.4970   -22.2260    16.8410 c3         1 XSY      -0.088400
     16 C19        -18.3200   -19.0520    15.1240 c          1 XSY       0.753100
     17 C23        -16.5770   -24.2390    18.1430 c3         1 XSY      -0.066400
     18 C25        -13.9320   -14.9440    16.0670 ca         1 XSY       0.212300
     19 C27        -11.7480   -14.7880    17.6000 ca         1 XSY       0.320300
     20 C29        -10.5900   -14.6350    18.3780 ca         1 XSY      -0.146300
     21 C31        -11.3760   -12.5530    16.6800 ca         1 XSY      -0.185300
     22 C32        -15.1750   -15.0490    15.2150 c3         1 XSY       0.645600
     23 C33         -9.8540   -13.4800    18.3100 ca         1 XSY      -0.168000
     24 C34        -10.2410   -12.4230    17.4530 ca         1 XSY       0.137100
     25 C40         -8.5730   -21.3950    17.5310 cx         1 XSY      -0.289200
     26 C41         -7.1930   -20.8570    17.7720 cx         1 XSY      -0.078400
     27 C42         -8.1490   -20.0880    16.9250 cx         1 XSY      -0.078400
     28 C43         -9.5840   -21.4410    18.6480 c3         1 XSY      -0.043100
     29 C44        -13.3410   -25.1370    14.5310 c2         1 XSY      -0.140200
     30 C45        -14.3180   -25.6340    15.2940 c2         1 XSY      -0.140200
     31 C46        -15.4690   -24.8980    15.9080 c3         1 XSY      -0.047200
     32 C47        -15.4320   -24.9650    17.4360 c3         1 XSY      -0.074400
     33 C48        -19.3130   -17.5540    13.5820 c5         1 XSY       0.163100
     34 C49        -18.1880   -17.2750    12.5760 c5         1 XSY      -0.063900
     35 C50        -18.7360   -17.6610    11.2190 cx         1 XSY      -0.132200
     36 C51        -20.2260   -17.8000    11.3390 cx         1 XSY      -0.132200
     37 C52        -20.6090   -17.4900    12.7690 c5         1 XSY      -0.063900
     38 C53        -19.3790   -19.0090    11.0720 cx         1 XSY      -0.111400
     39 C58         -8.3840   -11.0870    18.1090 c3         1 XSY       0.124700
     40 F54        -15.0980   -16.0810    14.3690 f          1 XSY      -0.217633
     41 F55        -15.3590   -13.9530    14.4890 f          1 XSY      -0.217633
     42 F56        -16.2650   -15.2210    15.9670 f          1 XSY      -0.217633
     43 N03        -14.9700   -19.8960    16.5780 n          1 XSY      -0.453800
     44 N10        -12.4270   -21.4590    14.6810 ns         1 XSY      -0.542900
     45 N17        -18.3080   -20.3260    15.5630 ns         1 XSY      -0.556900
     46 N26        -12.4760   -15.9280    17.6670 nb         1 XSY      -0.738000
     47 N30        -13.2500   -13.8520    15.9880 nb         1 XSY      -0.566000
     48 N35        -10.1300   -22.4280    15.6930 ns         1 XSY      -0.636300
     49 O07        -14.3130   -17.0920    16.9510 os         1 XSY      -0.411100
     50 O09        -13.1520   -22.0510    16.7270 o          1 XSY      -0.570100
     51 O16        -15.6670   -21.0300    14.7840 o          1 XSY      -0.619100
     52 O20        -19.2160   -18.8710    14.1540 os         1 XSY      -0.431900
     53 O21        -17.6050   -18.1800    15.5760 o          1 XSY      -0.595000
     54 O36        -10.4400   -24.4730    14.7700 o          1 XSY      -0.544100
     55 O38         -8.8220   -23.9980    17.2060 o          1 XSY      -0.586300
     56 O39         -7.6010   -22.7180    15.4420 o          1 XSY      -0.586300
     57 O57         -9.5580   -11.2740    17.3400 os         1 XSY      -0.311900
     58 S37         -8.6590   -22.7800    16.4360 s6         1 XSY       1.285600
     59 H131       -14.1900   -23.1780    14.1830 hc         1 XSY       0.101700
     60 H151       -17.4070   -20.1690    17.4270 h1         1 XSY       0.072700
     61 H221       -15.5480   -22.3850    17.7790 hc         1 XSY       0.048200
     62 H222       -16.8840   -22.2290    18.8830 hc         1 XSY       0.048200
     63 H011       -13.6240   -19.2600    15.0930 h1         1 XSY       0.080700
     64 H022       -12.4420   -19.7130    17.8650 hc         1 XSY       0.075700
     65 H021       -12.0320   -18.4540    16.7050 hc         1 XSY       0.075700
     66 H051       -13.6580   -17.8450    18.7760 h1         1 XSY       0.088700
     67 H062       -16.0690   -18.6050    17.8520 h1         1 XSY       0.077200
     68 H061       -15.0500   -19.7840    18.6930 h1         1 XSY       0.077200
     69 H141       -11.7320   -23.9760    12.4990 hc         1 XSY       0.088200
     70 H142       -12.8290   -22.5370    12.2680 hc         1 XSY       0.088200
     71 H181       -18.5370   -22.3670    17.1510 hc         1 XSY       0.057200
     72 H182       -17.3670   -22.8160    15.9300 hc         1 XSY       0.057200
     73 H231       -17.5370   -24.6570    17.8240 hc         1 XSY       0.037200
     74 H232       -16.4980   -24.4620    19.2090 hc         1 XSY       0.037200
     75 H291       -10.2870   -15.4390    19.0350 ha         1 XSY       0.151000
     76 H311       -11.6910   -11.7560    16.0180 ha         1 XSY       0.171000
     77 H331        -8.9680   -13.3950    18.9250 ha         1 XSY       0.143000
     78 H411        -6.3480   -21.3260    17.2850 hc         1 XSY       0.087950
     79 H412        -6.9990   -20.5190    18.7820 hc         1 XSY       0.087950
     80 H421        -7.9540   -20.0360    15.8610 hc         1 XSY       0.087950
     81 H422        -8.6270   -19.2090    17.3370 hc         1 XSY       0.087950
     82 H433        -9.4730   -20.5480    19.2620 hc         1 XSY       0.053700
     83 H432       -10.6070   -21.4580    18.2730 hc         1 XSY       0.053700
     84 H431        -9.4330   -22.3080    19.2900 hc         1 XSY       0.053700
     85 H441       -12.5700   -25.8110    14.1820 ha         1 XSY       0.140000
     86 H451       -14.2750   -26.6950    15.5230 ha         1 XSY       0.118000
     87 H462       -15.4840   -23.8580    15.5820 hc         1 XSY       0.046200
     88 H461       -16.4070   -25.3440    15.5600 hc         1 XSY       0.046200
     89 H472       -15.4370   -26.0160    17.7420 hc         1 XSY       0.047700
     90 H471       -14.4820   -24.5520    17.7850 hc         1 XSY       0.047700
     91 H481       -19.3170   -16.8260    14.3940 h1         1 XSY       0.071700
     92 H491       -17.2580   -17.7830    12.8380 hc         1 XSY       0.063200
     93 H492       -17.9730   -16.2040    12.5860 hc         1 XSY       0.063200
     94 H501       -18.2880   -17.2100    10.3420 hc         1 XSY       0.086700
     95 H511       -20.8820   -17.4530    10.5500 hc         1 XSY       0.086700
     96 H521       -20.9990   -16.4710    12.8200 hc         1 XSY       0.063200
     97 H522       -21.3800   -18.1460    13.1810 hc         1 XSY       0.063200
     98 H532       -19.4230   -19.4160    10.0690 hc         1 XSY       0.075700
     99 H531       -19.2430   -19.7610    11.8390 hc         1 XSY       0.075700
    100 H583        -8.0070   -10.1000    17.8540 h1         1 XSY       0.045033
    101 H582        -8.5890   -11.1170    19.1820 h1         1 XSY       0.045033
    102 H581        -7.6170   -11.8280    17.8720 h1         1 XSY       0.045033
    103 H101       -12.4310   -20.7570    13.9550 hn         1 XSY       0.325500
    104 H171       -18.8260   -21.0290    15.0590 hn         1 XSY       0.335500
    105 H351       -10.3810   -21.4460    15.6310 hn         1 XSY       0.337500
@<TRIPOS>BOND
     1     1    12 1   
     2     1    14 1   
     3     1    29 1   
     4     1    59 1   
     5     2    11 1   
     6     2    15 1   
     7     2    45 1   
     8     2    60 1   
     9     3    15 1   
    10     3    17 1   
    11     3    61 1   
    12     3    62 1   
    13     4    18 ar  
    14     4    46 ar  
    15     4    49 1   
    16     5    19 ar  
    17     5    21 ar  
    18     5    47 ar  
    19     6     7 1   
    20     6     8 1   
    21     6    43 1   
    22     6    63 1   
    23     7     9 1   
    24     7    64 1   
    25     7    65 1   
    26     8    44 1   
    27     8    50 2   
    28     9    10 1   
    29     9    49 1   
    30     9    66 1   
    31    10    43 1   
    32    10    67 1   
    33    10    68 1   
    34    11    43 1   
    35    11    51 2   
    36    12    13 1   
    37    12    14 1   
    38    12    44 1   
    39    13    48 1   
    40    13    54 2   
    41    14    69 1   
    42    14    70 1   
    43    15    71 1   
    44    15    72 1   
    45    16    45 1   
    46    16    52 1   
    47    16    53 2   
    48    17    32 1   
    49    17    73 1   
    50    17    74 1   
    51    18    22 1   
    52    18    47 ar  
    53    19    20 ar  
    54    19    46 ar  
    55    20    23 ar  
    56    20    75 1   
    57    21    24 ar  
    58    21    76 1   
    59    22    40 1   
    60    22    41 1   
    61    22    42 1   
    62    23    24 ar  
    63    23    77 1   
    64    24    57 1   
    65    25    26 1   
    66    25    27 1   
    67    25    28 1   
    68    25    58 1   
    69    26    27 1   
    70    26    78 1   
    71    26    79 1   
    72    27    80 1   
    73    27    81 1   
    74    28    82 1   
    75    28    83 1   
    76    28    84 1   
    77    29    30 2   
    78    29    85 1   
    79    30    31 1   
    80    30    86 1   
    81    31    32 1   
    82    31    87 1   
    83    31    88 1   
    84    32    89 1   
    85    32    90 1   
    86    33    34 1   
    87    33    37 1   
    88    33    52 1   
    89    33    91 1   
    90    34    35 1   
    91    34    92 1   
    92    34    93 1   
    93    35    36 1   
    94    35    38 1   
    95    35    94 1   
    96    36    37 1   
    97    36    38 1   
    98    36    95 1   
    99    37    96 1   
   100    37    97 1   
   101    38    98 1   
   102    38    99 1   
   103    39    57 1   
   104    39   100 1   
   105    39   101 1   
   106    39   102 1   
   107    44   103 1   
   108    45   104 1   
   109    48    58 1   
   110    48   105 1   
   111    55    58 2   
   112    56    58 2   
@<TRIPOS>SUBSTRUCTURE
     1 XSY         1 TEMP              0 ****  ****    0 ROOT
