@<TRIPOS>MOLECULE
XT0
   47    50     1     0     0
SMALL
No Charge or Current Charge


@<TRIPOS>ATOM
      1 NAA          6.7670     0.6940    -1.7990 n1         1 XT0      -0.456000
      2 CAC          6.0360    -0.1030    -1.3580 cg         1 XT0       0.339000
      3 CAV          5.1510    -1.0950    -0.8150 ca         1 XT0      -0.049000
      4 CAF          5.6750    -2.3220    -0.3620 ca         1 XT0      -0.040000
      5 CAD          4.8200    -3.3010     0.1730 ca         1 XT0      -0.149000
      6 CAE          3.4390    -3.0630     0.2560 ca         1 XT0      -0.055000
      7 CAG          2.9110    -1.8410    -0.1930 ca         1 XT0      -0.186000
      8 CAY          3.7640    -0.8500    -0.7230 ca         1 XT0       0.182100
      9 OAS          3.2490     0.3480    -1.1790 os         1 XT0      -0.224200
     10 CAX          2.1180     0.9200    -0.6370 ca         1 XT0       0.067100
     11 CAT          2.0630     1.3000     0.7250 ca         1 XT0       0.129100
     12 CAJ          0.8900     1.8810     1.2390 ca         1 XT0      -0.187000
     13 OAB          3.1400     1.1270     1.5520 oh         1 XT0      -0.510100
     14 CAI          1.0110     1.1430    -1.4710 ca         1 XT0      -0.073000
     15 CAH         -0.1590     1.7230    -0.9510 ca         1 XT0      -0.108000
     16 CAU         -0.2310     2.0890     0.4100 ca         1 XT0      -0.080300
     17 CAP         -1.5000     2.7200     0.9850 c3         1 XT0       0.125900
     18 NBA         -2.7430     2.0460     0.5720 na         1 XT0       0.121800
     19 CAK         -3.2060     0.8260     1.0000 cc         1 XT0      -0.211000
     20 NAR         -3.5980     2.6280    -0.3260 nc         1 XT0      -0.205800
     21 NAQ         -4.5960     1.7990    -0.4880 nd         1 XT0      -0.358000
     22 CAW         -4.3720     0.6980     0.3090 cd         1 XT0       0.220300
     23 CAZ         -5.2200    -0.5500     0.4880 c5         1 XT0      -0.088000
     24 CAN         -5.4770    -1.2440    -0.8730 c5         1 XT0      -0.074900
     25 CAL         -6.6160    -2.2390    -0.5070 c5         1 XT0      -0.079900
     26 CAM         -7.4060    -1.5400     0.6500 c5         1 XT0      -0.079900
     27 CAO         -6.6760    -0.1830     0.8700 c5         1 XT0      -0.074900
     28 H1           6.7440    -2.5190    -0.4250 ha         1 XT0       0.128000
     29 H2           5.2290    -4.2480     0.5200 ha         1 XT0       0.123000
     30 H3           2.7780    -3.8240     0.6670 ha         1 XT0       0.116000
     31 H4           1.8400    -1.6690    -0.1320 ha         1 XT0       0.128000
     32 H5           0.8450     2.1730     2.2860 ha         1 XT0       0.116000
     33 H6           2.9070     1.4610     2.4440 ho         1 XT0       0.469000
     34 H7           1.0580     0.8610    -2.5200 ha         1 XT0       0.141000
     35 H8          -1.0090     1.8880    -1.6110 ha         1 XT0       0.139000
     36 H9          -1.4580     2.7050     2.0800 h1         1 XT0       0.080200
     37 H10         -1.5480     3.7700     0.6730 h1         1 XT0       0.080200
     38 H11         -2.6950     0.1890     1.7080 h4         1 XT0       0.165000
     39 H12         -4.7790    -1.2450     1.2150 hc         1 XT0       0.067700
     40 H13         -5.8060    -0.5340    -1.6420 hc         1 XT0       0.045950
     41 H14         -4.5860    -1.7530    -1.2610 hc         1 XT0       0.045950
     42 H15         -7.2540    -2.4560    -1.3710 hc         1 XT0       0.041950
     43 H16         -6.2060    -3.1980    -0.1690 hc         1 XT0       0.041950
     44 H17         -8.4630    -1.3930     0.3990 hc         1 XT0       0.041950
     45 H18         -7.3790    -2.1510     1.5590 hc         1 XT0       0.041950
     46 H19         -6.7640     0.1760     1.9010 hc         1 XT0       0.045950
     47 H20         -7.0900     0.5960     0.2180 hc         1 XT0       0.045950
@<TRIPOS>BOND
     1     1     2 3   
     2     2     3 1   
     3     3     4 ar  
     4     3     8 ar  
     5     4     5 ar  
     6     4    28 1   
     7     5     6 ar  
     8     5    29 1   
     9     6     7 ar  
    10     6    30 1   
    11     7     8 ar  
    12     7    31 1   
    13     8     9 1   
    14     9    10 1   
    15    10    11 ar  
    16    10    14 ar  
    17    11    12 ar  
    18    11    13 1   
    19    12    16 ar  
    20    12    32 1   
    21    13    33 1   
    22    14    15 ar  
    23    14    34 1   
    24    15    16 ar  
    25    15    35 1   
    26    16    17 1   
    27    17    18 1   
    28    17    36 1   
    29    17    37 1   
    30    18    19 1   
    31    18    20 1   
    32    19    22 2   
    33    19    38 1   
    34    20    21 2   
    35    21    22 1   
    36    22    23 1   
    37    23    24 1   
    38    23    27 1   
    39    23    39 1   
    40    24    25 1   
    41    24    40 1   
    42    24    41 1   
    43    25    26 1   
    44    25    42 1   
    45    25    43 1   
    46    26    27 1   
    47    26    44 1   
    48    26    45 1   
    49    27    46 1   
    50    27    47 1   
@<TRIPOS>SUBSTRUCTURE
     1 XT0         1 TEMP              0 ****  ****    0 ROOT
