@<TRIPOS>MOLECULE
XT0
   47    50     1     0     0
SMALL
bcc


@<TRIPOS>ATOM
      1 NAA          6.8530     0.5220    -0.2800 n1         1 XT0      -0.366800
      2 CAC          5.9810    -0.2260    -0.1860 cg         1 XT0       0.249800
      3 CAV          4.9200    -1.1680    -0.0660 ca         1 XT0      -0.049000
      4 CAF          5.1970    -2.5150     0.1630 ca         1 XT0      -0.058000
      5 CAD          4.1590    -3.4210     0.2840 ca         1 XT0      -0.167000
      6 CAE          2.8480    -2.9740     0.1710 ca         1 XT0      -0.073000
      7 CAG          2.5570    -1.6380    -0.0600 ca         1 XT0      -0.204000
      8 CAY          3.5970    -0.7260    -0.1790 ca         1 XT0       0.182100
      9 OAS          3.4360     0.5900    -0.4280 os         1 XT0      -0.224200
     10 CAX          2.1800     1.1410    -0.3460 ca         1 XT0       0.067100
     11 CAT          1.6330     1.4020     0.9100 ca         1 XT0       0.129100
     12 CAJ          0.3840     2.0100     0.9790 ca         1 XT0      -0.205000
     13 OAB          2.3480     1.0420     1.9860 oh         1 XT0      -0.471100
     14 CAI          1.5020     1.4830    -1.5020 ca         1 XT0      -0.091000
     15 CAH          0.2610     2.0950    -1.4220 ca         1 XT0      -0.126000
     16 CAU         -0.3020     2.3570    -0.1780 ca         1 XT0      -0.080300
     17 CAP         -1.6660     2.9890    -0.0830 c3         1 XT0       0.096600
     18 NBA         -2.7090     2.0460    -0.4410 na         1 XT0       0.100400
     19 CAK         -3.2090     1.0410     0.2990 cc         1 XT0      -0.243600
     20 NAR         -3.2160     2.0330    -1.6590 nc         1 XT0      -0.205800
     21 NAQ         -4.0460     1.0490    -1.7310 nd         1 XT0      -0.358000
     22 CAW         -4.0810     0.4000    -0.5440 cd         1 XT0       0.285600
     23 CAZ         -4.9560    -0.7780    -0.2970 c5         1 XT0      -0.088000
     24 CAN         -6.4590    -0.4860    -0.4220 c5         1 XT0      -0.074900
     25 CAL         -7.1530    -1.6240     0.3540 c5         1 XT0      -0.079900
     26 CAM         -6.0400    -2.3290     1.1600 c5         1 XT0      -0.079900
     27 CAO         -4.8440    -1.3800     1.1020 c5         1 XT0      -0.074900
     28 H1           6.2250    -2.8380     0.2480 ha         1 XT0       0.146000
     29 H2           4.3690    -4.4660     0.4620 ha         1 XT0       0.141000
     30 H3           2.0310    -3.6770     0.2610 ha         1 XT0       0.134000
     31 H4           1.5280    -1.3210    -0.1560 ha         1 XT0       0.146000
     32 H5          -0.0520     2.2190     1.9500 ha         1 XT0       0.134000
     33 H6           1.8670     1.2480     2.7970 ho         1 XT0       0.430000
     34 H7           1.9540     1.2760    -2.4630 ha         1 XT0       0.159000
     35 H8          -0.2640     2.3620    -2.3300 ha         1 XT0       0.157000
     36 H9          -1.8630     3.3490     0.9260 h1         1 XT0       0.080200
     37 H10         -1.7560     3.8350    -0.7620 h1         1 XT0       0.080200
     38 H11         -2.9210     0.8700     1.3230 h4         1 XT0       0.183000
     39 H12         -4.6980    -1.5590    -1.0230 hc         1 XT0       0.067700
     40 H13         -6.6770     0.4800     0.0400 hc         1 XT0       0.045950
     41 H14         -6.7820    -0.4210    -1.4610 hc         1 XT0       0.045950
     42 H15         -7.9270    -1.2240     1.0100 hc         1 XT0       0.041950
     43 H16         -7.6490    -2.3220    -0.3200 hc         1 XT0       0.041950
     44 H17         -6.3430    -2.5600     2.1820 hc         1 XT0       0.041950
     45 H18         -5.7750    -3.2760     0.6850 hc         1 XT0       0.041950
     46 H19         -3.8900    -1.8790     1.2800 hc         1 XT0       0.045950
     47 H20         -4.9500    -0.5920     1.8540 hc         1 XT0       0.045950
@<TRIPOS>BOND
     1     1     2 3   
     2     2     3 1   
     3     3     4 ar  
     4     3     8 ar  
     5     4     5 ar  
     6     4    28 1   
     7     5     6 ar  
     8     5    29 1   
     9     6     7 ar  
    10     6    30 1   
    11     7     8 ar  
    12     7    31 1   
    13     8     9 1   
    14     9    10 1   
    15    10    11 ar  
    16    10    14 ar  
    17    11    12 ar  
    18    11    13 1   
    19    12    16 ar  
    20    12    32 1   
    21    13    33 1   
    22    14    15 ar  
    23    14    34 1   
    24    15    16 ar  
    25    15    35 1   
    26    16    17 1   
    27    17    18 1   
    28    17    36 1   
    29    17    37 1   
    30    18    19 1   
    31    18    20 1   
    32    19    22 2   
    33    19    38 1   
    34    20    21 2   
    35    21    22 1   
    36    22    23 1   
    37    23    24 1   
    38    23    27 1   
    39    23    39 1   
    40    24    25 1   
    41    24    40 1   
    42    24    41 1   
    43    25    26 1   
    44    25    42 1   
    45    25    43 1   
    46    26    27 1   
    47    26    44 1   
    48    26    45 1   
    49    27    46 1   
    50    27    47 1   
@<TRIPOS>SUBSTRUCTURE
     1 XT0         1 TEMP              0 ****  ****    0 ROOT
