@<TRIPOS>MOLECULE
XT1
  127   133     1     0     0
SMALL
bcc


@<TRIPOS>ATOM
      1 C1           2.1080     3.3880    -1.8690 c          1 XT1       0.908600
      2 O1           1.2230     3.1150    -2.7060 o          1 XT1      -0.837800
      3 C2           3.0650     2.2380    -1.4460 c3         1 XT1       0.023800
      4 O2           2.3010     4.4930    -1.3260 o          1 XT1      -0.837800
      5 C3           2.8180     1.9470     0.0470 c3         1 XT1      -0.082400
      6 O3           2.8290     1.0720    -2.2090 oh         1 XT1      -0.633800
      7 C4           3.6250     0.8130     0.6640 c6         1 XT1       0.147100
      8 O4           4.9050     1.3310     1.0470 os         1 XT1      -0.424600
      9 C5           2.9280     0.2260     1.8810 c6         1 XT1      -0.107400
     10 O5           6.0770    -1.1530     3.3950 oh         1 XT1      -0.581800
     11 C6           3.8100    -0.8290     2.5330 c6         1 XT1      -0.110400
     12 O6           6.1120    -0.6260     0.7450 os         1 XT1      -0.406600
     13 C7           5.1660    -0.2220     2.8640 c6         1 XT1       0.137100
     14 O7           2.6470    -3.0490    -0.6790 os         1 XT1      -0.415600
     15 C8           5.8070     0.4130     1.6190 c6         1 XT1       0.397800
     16 O8           0.5360    -2.6570    -1.5320 os         1 XT1      -0.417600
     17 C9           7.0350     1.1930     1.9970 c2         1 XT1      -0.159200
     18 O9          -0.8430    -1.2200     1.5130 os         1 XT1      -0.390600
     19 C10          8.2190     0.9970     1.4230 c2         1 XT1      -0.105400
     20 O10         -0.0470    -0.0600    -2.3950 oh         1 XT1      -0.569800
     21 C11          8.3600     0.0300     0.2800 c6         1 XT1      -0.066200
     22 O11         -3.5300    -1.6170     1.8960 oh         1 XT1      -0.588800
     23 C12          6.9950    -0.2810    -0.3050 c6         1 XT1       0.152100
     24 O12         -7.8810     0.4280     0.3670 os         1 XT1      -0.436600
     25 C13          6.9550    -1.4210    -1.3230 c3         1 XT1      -0.021500
     26 O13         -8.9380     2.1000    -0.8370 os         1 XT1      -0.436600
     27 C14          5.5280    -1.6040    -1.7390 c2         1 XT1      -0.129200
     28 C15          4.8040    -2.6990    -1.5550 c2         1 XT1      -0.178200
     29 C16          3.3540    -2.7750    -1.8890 c5         1 XT1       0.174300
     30 C17          2.9460    -3.9100    -2.8510 c5         1 XT1      -0.098400
     31 C18          1.7530    -4.5830    -2.1590 c5         1 XT1      -0.088400
     32 C19          1.4240    -3.6330    -1.0120 c5         1 XT1       0.334600
     33 C20          0.8370    -4.2790     0.2330 c6         1 XT1      -0.081400
     34 C21          0.4220    -3.2330     1.2640 c6         1 XT1      -0.068400
     35 C22         -0.4920    -2.2260     0.5950 c6         1 XT1       0.113100
     36 C23          0.2090    -1.6290    -0.6250 c6         1 XT1       0.120100
     37 C24         -0.7160    -0.6320    -1.3040 c6         1 XT1       0.205300
     38 C25         -1.1550     0.3630    -0.2520 c2         1 XT1      -0.237400
     39 C26         -1.7370    -0.2510     0.9970 c6         1 XT1       0.158300
     40 C27         -3.1630    -0.8120     0.8010 c3         1 XT1       0.117100
     41 C28         -4.1540     0.3280     0.5670 c3         1 XT1      -0.110400
     42 C29         -5.5990    -0.1470     0.3880 c3         1 XT1      -0.050700
     43 C30         -6.5910     1.0160     0.4690 c6         1 XT1       0.161100
     44 C31         -6.5060     1.8840     1.7290 c6         1 XT1      -0.089700
     45 C32         -7.6300     2.9210     1.6650 c6         1 XT1      -0.070400
     46 C33         -8.9900     2.2570     1.4920 c6         1 XT1      -0.087400
     47 C34         -8.9870     1.2850     0.3140 c6         1 XT1       0.358600
     48 C35        -10.2320     0.3790     0.2900 c6         1 XT1      -0.066700
     49 C36        -10.3360    -0.3670    -1.0420 c6         1 XT1      -0.071400
     50 C37        -10.2270     0.5890    -2.2200 c6         1 XT1      -0.110400
     51 C38         -8.9680     1.4210    -2.0800 c6         1 XT1       0.139400
     52 C39         -6.5480     1.0740     3.0220 c3         1 XT1      -0.081100
     53 C40         -5.7640    -0.8940    -0.9360 c3         1 XT1      -0.082100
     54 C41         -0.9880     1.6750    -0.3660 c2         1 XT1      -0.153000
     55 C42          7.8460    -1.1150    -2.5260 c3         1 XT1      -0.084100
     56 C43          9.4580     1.7190     1.8470 c3         1 XT1      -0.045900
     57 C44          4.5000     2.6600    -1.7370 c3         1 XT1      -0.049100
     58 C45        -10.2870    -0.6050     1.4530 c3         1 XT1      -0.080100
     59 H3           2.9560     2.8560     0.6380 hc         1 XT1       0.050700
     60 H3A          1.7580     1.6820     0.1530 hc         1 XT1       0.050700
     61 HO3          1.8730     0.9350    -2.2580 ho         1 XT1       0.422000
     62 H4           3.7540     0.0170    -0.0790 h1         1 XT1       0.066700
     63 H5           2.7040     1.0260     2.5970 hc         1 XT1       0.048200
     64 H5A          1.9710    -0.2080     1.5830 hc         1 XT1       0.048200
     65 HO5          5.7080    -1.4860     4.2190 ho         1 XT1       0.389000
     66 H6           3.3460    -1.2050     3.4500 hc         1 XT1       0.049700
     67 H6A          3.9260    -1.6800     1.8560 hc         1 XT1       0.049700
     68 H7           4.9980     0.6030     3.5750 h1         1 XT1       0.031700
     69 H9           6.9240     1.9140     2.8010 ha         1 XT1       0.129000
     70 H11          9.0040     0.4730    -0.4850 hc         1 XT1       0.047200
     71 H11A         8.8670    -0.8820     0.6180 hc         1 XT1       0.047200
     72 H12          6.6340     0.6250    -0.8120 h1         1 XT1       0.064700
     73 H13          7.3110    -2.3390    -0.8420 hc         1 XT1       0.052700
     74 H14          5.0460    -0.7330    -2.1800 ha         1 XT1       0.152000
     75 H15          5.2490    -3.5860    -1.1070 ha         1 XT1       0.113000
     76 H16          3.0310    -1.8060    -2.2870 h1         1 XT1       0.087700
     77 H17          2.6850    -3.5080    -3.8290 hc         1 XT1       0.049200
     78 H17A         3.7640    -4.6160    -2.9990 hc         1 XT1       0.049200
     79 H18          0.8990    -4.7410    -2.8170 hc         1 XT1       0.052700
     80 H18A         2.0360    -5.5550    -1.7500 hc         1 XT1       0.052700
     81 H20         -0.0360    -4.8660    -0.0660 hc         1 XT1       0.049700
     82 H20A         1.5590    -4.9780     0.6590 hc         1 XT1       0.049700
     83 H21         -0.0900    -3.7120     2.1020 hc         1 XT1       0.058200
     84 H21A         1.3020    -2.7220     1.6660 hc         1 XT1       0.058200
     85 H22         -1.3850    -2.7630     0.2390 h1         1 XT1       0.038700
     86 H23          1.1120    -1.0910    -0.2980 h1         1 XT1       0.087700
     87 H24         -1.6030    -1.1860    -1.6530 h1         1 XT1       0.024700
     88 H26         -1.7950     0.5240     1.7700 h1         1 XT1       0.067700
     89 H27         -3.1860    -1.4810    -0.0640 h1         1 XT1       0.078700
     90 H28         -4.0670     1.0190     1.4130 hc         1 XT1       0.050200
     91 H28A        -3.8430     0.8960    -0.3150 hc         1 XT1       0.050200
     92 H29         -5.8350    -0.8390     1.2030 hc         1 XT1       0.066700
     93 H30         -6.4130     1.6750    -0.3950 h1         1 XT1       0.044700
     94 H31         -5.5600     2.4320     1.6980 hc         1 XT1       0.055700
     95 H32         -7.6270     3.5300     2.5720 hc         1 XT1       0.047700
     96 H32A        -7.4430     3.6050     0.8330 hc         1 XT1       0.047700
     97 H33         -9.2540     1.7190     2.4040 hc         1 XT1       0.051700
     98 H33A        -9.7720     3.0050     1.3390 hc         1 XT1       0.051700
     99 H35        -11.0950     1.0520     0.3660 hc         1 XT1       0.051700
    100 H36         -9.5440    -1.1210    -1.1040 hc         1 XT1       0.045200
    101 H36A       -11.2840    -0.9110    -1.0750 hc         1 XT1       0.045200
    102 H37        -10.2010     0.0440    -3.1670 hc         1 XT1       0.044200
    103 H37A       -11.1020     1.2440    -2.2520 hc         1 XT1       0.044200
    104 H38         -8.9170     2.1960    -2.8480 h1         1 XT1       0.048700
    105 H38A        -8.0850     0.7830    -2.2020 h1         1 XT1       0.048700
    106 H39         -5.6680     0.4380     3.1290 hc         1 XT1       0.032033
    107 H39A        -6.5740     1.7370     3.8890 hc         1 XT1       0.032033
    108 H39B        -7.4230     0.4270     3.0750 hc         1 XT1       0.032033
    109 H40         -5.6030    -0.2210    -1.7830 hc         1 XT1       0.034367
    110 H40A        -5.0520    -1.7140    -1.0300 hc         1 XT1       0.034367
    111 H40B        -6.7610    -1.3200    -1.0350 hc         1 XT1       0.034367
    112 H41         -0.5220     2.1410    -1.2240 ha         1 XT1       0.144500
    113 H41A        -1.3050     2.3390     0.4280 ha         1 XT1       0.144500
    114 H42          7.5520    -0.1790    -3.0080 hc         1 XT1       0.033033
    115 H42A         8.8950    -1.0300    -2.2420 hc         1 XT1       0.033033
    116 H42B         7.7700    -1.9090    -3.2690 hc         1 XT1       0.033033
    117 H43          9.2800     2.3770     2.6970 hc         1 XT1       0.034033
    118 H43A        10.2420     1.0090     2.1240 hc         1 XT1       0.034033
    119 H43B         9.8600     2.3200     1.0280 hc         1 XT1       0.034033
    120 H44          4.7990     3.4990    -1.1130 hc         1 XT1       0.023367
    121 H44A         5.1990     1.8450    -1.5560 hc         1 XT1       0.023367
    122 H44B         4.6080     2.9610    -2.7820 hc         1 XT1       0.023367
    123 H45        -10.2630    -0.1120     2.4250 hc         1 XT1       0.035700
    124 H45A       -11.2150    -1.1790     1.4090 hc         1 XT1       0.035700
    125 H45B        -9.4580    -1.3100     1.4110 hc         1 XT1       0.035700
    126 HO10        -0.6270     0.5820    -2.8180 ho         1 XT1       0.421000
    127 HO11        -3.5460    -1.0710     2.6900 ho         1 XT1       0.397000
@<TRIPOS>BOND
     1     1     2 1   
     2     1     3 1   
     3     1     4 1   
     4     3     5 1   
     5     3     6 1   
     6     3    57 1   
     7     5     7 1   
     8     5    59 1   
     9     5    60 1   
    10     6    61 1   
    11     7     8 1   
    12     7     9 1   
    13     7    62 1   
    14     8    15 1   
    15     9    11 1   
    16     9    63 1   
    17     9    64 1   
    18    10    13 1   
    19    10    65 1   
    20    11    13 1   
    21    11    66 1   
    22    11    67 1   
    23    12    15 1   
    24    12    23 1   
    25    13    15 1   
    26    13    68 1   
    27    14    29 1   
    28    14    32 1   
    29    15    17 1   
    30    16    32 1   
    31    16    36 1   
    32    17    19 2   
    33    17    69 1   
    34    18    35 1   
    35    18    39 1   
    36    19    21 1   
    37    19    56 1   
    38    20    37 1   
    39    20   126 1   
    40    21    23 1   
    41    21    70 1   
    42    21    71 1   
    43    22    40 1   
    44    22   127 1   
    45    23    25 1   
    46    23    72 1   
    47    24    43 1   
    48    24    47 1   
    49    25    27 1   
    50    25    55 1   
    51    25    73 1   
    52    26    47 1   
    53    26    51 1   
    54    27    28 2   
    55    27    74 1   
    56    28    29 1   
    57    28    75 1   
    58    29    30 1   
    59    29    76 1   
    60    30    31 1   
    61    30    77 1   
    62    30    78 1   
    63    31    32 1   
    64    31    79 1   
    65    31    80 1   
    66    32    33 1   
    67    33    34 1   
    68    33    81 1   
    69    33    82 1   
    70    34    35 1   
    71    34    83 1   
    72    34    84 1   
    73    35    36 1   
    74    35    85 1   
    75    36    37 1   
    76    36    86 1   
    77    37    38 1   
    78    37    87 1   
    79    38    39 1   
    80    38    54 2   
    81    39    40 1   
    82    39    88 1   
    83    40    41 1   
    84    40    89 1   
    85    41    42 1   
    86    41    90 1   
    87    41    91 1   
    88    42    43 1   
    89    42    53 1   
    90    42    92 1   
    91    43    44 1   
    92    43    93 1   
    93    44    45 1   
    94    44    52 1   
    95    44    94 1   
    96    45    46 1   
    97    45    95 1   
    98    45    96 1   
    99    46    47 1   
   100    46    97 1   
   101    46    98 1   
   102    47    48 1   
   103    48    49 1   
   104    48    58 1   
   105    48    99 1   
   106    49    50 1   
   107    49   100 1   
   108    49   101 1   
   109    50    51 1   
   110    50   102 1   
   111    50   103 1   
   112    51   104 1   
   113    51   105 1   
   114    52   106 1   
   115    52   107 1   
   116    52   108 1   
   117    53   109 1   
   118    53   110 1   
   119    53   111 1   
   120    54   112 1   
   121    54   113 1   
   122    55   114 1   
   123    55   115 1   
   124    55   116 1   
   125    56   117 1   
   126    56   118 1   
   127    56   119 1   
   128    57   120 1   
   129    57   121 1   
   130    57   122 1   
   131    58   123 1   
   132    58   124 1   
   133    58   125 1   
@<TRIPOS>SUBSTRUCTURE
     1 XT1         1 TEMP              0 ****  ****    0 ROOT
