@<TRIPOS>MOLECULE
XT1
  127   133     1     0     0
SMALL
No Charge or Current Charge


@<TRIPOS>ATOM
      1 C1           1.8800     3.3110    -1.8660 c          1 XT1       0.698000
      2 O1           1.3360     3.2120    -2.9590 o          1 XT1      -0.732500
      3 C2           2.9150     2.1840    -1.4130 c3         1 XT1       0.047000
      4 O2           1.6080     4.2170    -1.0870 o          1 XT1      -0.732500
      5 C3           2.7050     1.8310     0.0980 c3         1 XT1      -0.082400
      6 O3           2.7590     0.9530    -2.1730 oh         1 XT1      -0.696000
      7 C4           3.6020     0.7200     0.7370 c6         1 XT1       0.170300
      8 O4           4.8870     1.3030     1.0790 os         1 XT1      -0.471000
      9 C5           2.9370     0.1590     2.0240 c6         1 XT1      -0.107400
     10 O5           6.0980    -1.2210     3.6230 oh         1 XT1      -0.704000
     11 C6           3.8560    -0.8710     2.7150 c6         1 XT1      -0.110400
     12 O6           6.1740    -0.6460     0.7120 os         1 XT1      -0.453000
     13 C7           5.2400    -0.2390     2.9980 c6         1 XT1       0.160300
     14 O7           2.8600    -3.1940    -0.8650 os         1 XT1      -0.462000
     15 C8           5.8480     0.3900     1.6720 c6         1 XT1       0.444200
     16 O8           0.7840    -2.4990    -1.6450 os         1 XT1      -0.464000
     17 C9           7.1080     1.1870     2.0220 c2         1 XT1      -0.209200
     18 O9          -0.6890    -1.1920     1.5430 os         1 XT1      -0.437000
     19 C10          8.2820     1.0760     1.3730 c2         1 XT1      -0.105400
     20 O10          0.0680     0.2710    -2.3200 oh         1 XT1      -0.692000
     21 C11          8.4240     0.1390     0.1810 c6         1 XT1      -0.066200
     22 O11         -3.3330    -1.5870     2.0830 oh         1 XT1      -0.711000
     23 C12          7.0290    -0.2330    -0.3750 c6         1 XT1       0.175300
     24 O12         -7.9780     0.4120     0.4950 os         1 XT1      -0.483000
     25 C13          7.0200    -1.3740    -1.4420 c3         1 XT1      -0.021500
     26 O13         -8.8230     2.0490    -0.9900 os         1 XT1      -0.483000
     27 C14          5.6000    -1.7010    -1.8710 c2         1 XT1      -0.179200
     28 C15          5.0200    -2.9110    -1.8000 c2         1 XT1      -0.228200
     29 C16          3.5390    -3.0350    -2.1140 c5         1 XT1       0.197500
     30 C17          3.2220    -4.3720    -2.8200 c5         1 XT1      -0.098400
     31 C18          1.7310    -4.5910    -2.4100 c5         1 XT1      -0.088400
     32 C19          1.5350    -3.6490    -1.1710 c5         1 XT1       0.381000
     33 C20          0.8740    -4.3160     0.0670 c6         1 XT1      -0.081400
     34 C21          0.5260    -3.2840     1.1600 c6         1 XT1      -0.068400
     35 C22         -0.3680    -2.1910     0.5510 c6         1 XT1       0.136300
     36 C23          0.3360    -1.5260    -0.6570 c6         1 XT1       0.143300
     37 C24         -0.5960    -0.4400    -1.2650 c6         1 XT1       0.228500
     38 C25         -1.1010     0.5290    -0.1830 c2         1 XT1      -0.237400
     39 C26         -1.5930    -0.1400     1.1100 c6         1 XT1       0.181500
     40 C27         -3.0420    -0.7310     0.9660 c3         1 XT1       0.140300
     41 C28         -4.1450     0.3560     0.8520 c3         1 XT1      -0.110400
     42 C29         -5.6110    -0.1560     0.6660 c3         1 XT1      -0.050700
     43 C30         -6.6650     1.0120     0.6350 c6         1 XT1       0.184300
     44 C31         -6.6610     1.9780     1.8670 c6         1 XT1      -0.089700
     45 C32         -7.7770     3.0380     1.6680 c6         1 XT1      -0.070400
     46 C33         -9.1480     2.3640     1.4090 c6         1 XT1      -0.087400
     47 C34         -9.0710     1.3280     0.2440 c6         1 XT1       0.405000
     48 C35        -10.4230     0.5310     0.1030 c6         1 XT1      -0.066700
     49 C36        -10.4180    -0.3480    -1.1810 c6         1 XT1      -0.071400
     50 C37        -10.0510     0.4910    -2.4230 c6         1 XT1      -0.110400
     51 C38         -8.7250     1.2380    -2.1820 c6         1 XT1       0.162600
     52 C39         -6.7990     1.2420     3.2360 c3         1 XT1      -0.081100
     53 C40         -5.7260    -1.0590    -0.5950 c3         1 XT1      -0.082100
     54 C41         -1.1450     1.8710    -0.3190 c2         1 XT1      -0.253000
     55 C42          7.8720    -1.0550    -2.6920 c3         1 XT1      -0.084100
     56 C43          9.5360     1.8350     1.7600 c3         1 XT1      -0.045900
     57 C44          4.3360     2.7310    -1.6950 c3         1 XT1      -0.049100
     58 C45        -10.7830    -0.3480     1.3420 c3         1 XT1      -0.080100
     59 H3           2.8070     2.7430     0.6970 hc         1 XT1       0.050700
     60 H3A          1.6560     1.5330     0.2070 hc         1 XT1       0.050700
     61 HO3          1.7810     0.7850    -2.2480 ho         1 XT1       0.461000
     62 H4           3.7430    -0.0990     0.0160 h1         1 XT1       0.066700
     63 H5           2.7150     0.9830     2.7170 hc         1 XT1       0.048200
     64 H5A          1.9750    -0.3100     1.7820 hc         1 XT1       0.048200
     65 HO5          5.6170    -1.5530     4.4140 ho         1 XT1       0.488000
     66 H6           3.3920    -1.2160     3.6490 hc         1 XT1       0.049700
     67 H6A          3.9690    -1.7540     2.0700 hc         1 XT1       0.049700
     68 H7           5.0810     0.5900     3.7040 h1         1 XT1       0.031700
     69 H9           7.0070     1.8590     2.8720 ha         1 XT1       0.179000
     70 H11          9.0080     0.6320    -0.6070 hc         1 XT1       0.047200
     71 H11A         8.9790    -0.7620     0.4770 hc         1 XT1       0.047200
     72 H12          6.5970     0.6610    -0.8380 h1         1 XT1       0.064700
     73 H13          7.4620    -2.2670    -0.9820 hc         1 XT1       0.052700
     74 H14          5.0210    -0.8290    -2.1860 ha         1 XT1       0.202000
     75 H15          5.5840    -3.7730    -1.4450 ha         1 XT1       0.163000
     76 H16          3.1310    -2.1680    -2.6550 h1         1 XT1       0.087700
     77 H17          3.3610    -4.3160    -3.9050 hc         1 XT1       0.049200
     78 H17A         3.8540    -5.1860    -2.4470 hc         1 XT1       0.049200
     79 H18          1.0480    -4.3290    -3.2260 hc         1 XT1       0.052700
     80 H18A         1.5370    -5.6410    -2.1650 hc         1 XT1       0.052700
     81 H20         -0.0380    -4.8420    -0.2490 hc         1 XT1       0.049700
     82 H20A         1.5470    -5.0820     0.4760 hc         1 XT1       0.049700
     83 H21          0.0090    -3.7770     1.9940 hc         1 XT1       0.058200
     84 H21A         1.4450    -2.8400     1.5680 hc         1 XT1       0.058200
     85 H22         -1.2980    -2.6650     0.2070 h1         1 XT1       0.038700
     86 H23          1.2300    -1.0150    -0.2770 h1         1 XT1       0.087700
     87 H24         -1.4730    -0.9580    -1.6830 h1         1 XT1       0.024700
     88 H26         -1.6210     0.6110     1.9140 h1         1 XT1       0.067700
     89 H27         -3.0490    -1.3180     0.0390 h1         1 XT1       0.078700
     90 H28         -4.0850     0.9720     1.7550 hc         1 XT1       0.050200
     91 H28A        -3.9040     1.0180     0.0120 hc         1 XT1       0.050200
     92 H29         -5.8490    -0.7950     1.5250 hc         1 XT1       0.066700
     93 H30         -6.4540     1.6060    -0.2670 h1         1 XT1       0.044700
     94 H31         -5.7060     2.5180     1.9010 hc         1 XT1       0.055700
     95 H32         -7.8400     3.7000     2.5430 hc         1 XT1       0.047700
     96 H32A        -7.5200     3.6830     0.8160 hc         1 XT1       0.047700
     97 H33         -9.4840     1.8850     2.3350 hc         1 XT1       0.051700
     98 H33A        -9.8990     3.1310     1.1750 hc         1 XT1       0.051700
     99 H35        -11.2380     1.2610     0.0070 hc         1 XT1       0.051700
    100 H36         -9.6980    -1.1700    -1.0680 hc         1 XT1       0.045200
    101 H36A       -11.4030    -0.8130    -1.3280 hc         1 XT1       0.045200
    102 H37         -9.9610    -0.1570    -3.3050 hc         1 XT1       0.044200
    103 H37A       -10.8490     1.2140    -2.6400 hc         1 XT1       0.044200
    104 H38         -8.5020     1.8900    -3.0380 h1         1 XT1       0.048700
    105 H38A        -7.8950     0.5240    -2.0780 h1         1 XT1       0.048700
    106 H39         -5.9230     0.6190     3.4470 hc         1 XT1       0.032033
    107 H39A        -6.8880     1.9590     4.0610 hc         1 XT1       0.032033
    108 H39B        -7.6810     0.5910     3.2640 hc         1 XT1       0.032033
    109 H40         -5.4370    -0.5060    -1.4970 hc         1 XT1       0.034367
    110 H40A        -5.0870    -1.9460    -0.5130 hc         1 XT1       0.034367
    111 H40B        -6.7500    -1.4240    -0.7340 hc         1 XT1       0.034367
    112 H41         -0.8120     2.3900    -1.2180 ha         1 XT1       0.194500
    113 H41A        -1.5170     2.5170     0.4780 ha         1 XT1       0.194500
    114 H42          7.5270    -0.1320    -3.1730 hc         1 XT1       0.033033
    115 H42A         8.9290    -0.9350    -2.4290 hc         1 XT1       0.033033
    116 H42B         7.8010    -1.8700    -3.4220 hc         1 XT1       0.033033
    117 H43          9.3670     2.4760     2.6340 hc         1 XT1       0.034033
    118 H43A        10.3520     1.1460     2.0060 hc         1 XT1       0.034033
    119 H43B         9.8760     2.4790     0.9390 hc         1 XT1       0.034033
    120 H44          4.5620     3.5830    -1.0430 hc         1 XT1       0.023367
    121 H44A         5.0960     1.9630    -1.5350 hc         1 XT1       0.023367
    122 H44B         4.4190     3.0690    -2.7340 hc         1 XT1       0.023367
    123 H45        -10.9810     0.2560     2.2340 hc         1 XT1       0.035700
    124 H45A       -11.6900    -0.9350     1.1550 hc         1 XT1       0.035700
    125 H45B        -9.9790    -1.0540     1.5830 hc         1 XT1       0.035700
    126 HO10        -0.6420     0.7160    -2.8330 ho         1 XT1       0.520000
    127 HO11        -2.4500    -1.8820     2.4100 ho         1 XT1       0.496000
@<TRIPOS>BOND
     1     1     2 1   
     2     1     3 1   
     3     1     4 1   
     4     3     5 1   
     5     3     6 1   
     6     3    57 1   
     7     5     7 1   
     8     5    59 1   
     9     5    60 1   
    10     6    61 1   
    11     7     8 1   
    12     7     9 1   
    13     7    62 1   
    14     8    15 1   
    15     9    11 1   
    16     9    63 1   
    17     9    64 1   
    18    10    13 1   
    19    10    65 1   
    20    11    13 1   
    21    11    66 1   
    22    11    67 1   
    23    12    15 1   
    24    12    23 1   
    25    13    15 1   
    26    13    68 1   
    27    14    29 1   
    28    14    32 1   
    29    15    17 1   
    30    16    32 1   
    31    16    36 1   
    32    17    19 2   
    33    17    69 1   
    34    18    35 1   
    35    18    39 1   
    36    19    21 1   
    37    19    56 1   
    38    20    37 1   
    39    20   126 1   
    40    21    23 1   
    41    21    70 1   
    42    21    71 1   
    43    22    40 1   
    44    22   127 1   
    45    23    25 1   
    46    23    72 1   
    47    24    43 1   
    48    24    47 1   
    49    25    27 1   
    50    25    55 1   
    51    25    73 1   
    52    26    47 1   
    53    26    51 1   
    54    27    28 2   
    55    27    74 1   
    56    28    29 1   
    57    28    75 1   
    58    29    30 1   
    59    29    76 1   
    60    30    31 1   
    61    30    77 1   
    62    30    78 1   
    63    31    32 1   
    64    31    79 1   
    65    31    80 1   
    66    32    33 1   
    67    33    34 1   
    68    33    81 1   
    69    33    82 1   
    70    34    35 1   
    71    34    83 1   
    72    34    84 1   
    73    35    36 1   
    74    35    85 1   
    75    36    37 1   
    76    36    86 1   
    77    37    38 1   
    78    37    87 1   
    79    38    39 1   
    80    38    54 2   
    81    39    40 1   
    82    39    88 1   
    83    40    41 1   
    84    40    89 1   
    85    41    42 1   
    86    41    90 1   
    87    41    91 1   
    88    42    43 1   
    89    42    53 1   
    90    42    92 1   
    91    43    44 1   
    92    43    93 1   
    93    44    45 1   
    94    44    52 1   
    95    44    94 1   
    96    45    46 1   
    97    45    95 1   
    98    45    96 1   
    99    46    47 1   
   100    46    97 1   
   101    46    98 1   
   102    47    48 1   
   103    48    49 1   
   104    48    58 1   
   105    48    99 1   
   106    49    50 1   
   107    49   100 1   
   108    49   101 1   
   109    50    51 1   
   110    50   102 1   
   111    50   103 1   
   112    51   104 1   
   113    51   105 1   
   114    52   106 1   
   115    52   107 1   
   116    52   108 1   
   117    53   109 1   
   118    53   110 1   
   119    53   111 1   
   120    54   112 1   
   121    54   113 1   
   122    55   114 1   
   123    55   115 1   
   124    55   116 1   
   125    56   117 1   
   126    56   118 1   
   127    56   119 1   
   128    57   120 1   
   129    57   121 1   
   130    57   122 1   
   131    58   123 1   
   132    58   124 1   
   133    58   125 1   
@<TRIPOS>SUBSTRUCTURE
     1 XT1         1 TEMP              0 ****  ****    0 ROOT
