@<TRIPOS>MOLECULE
XT3
   50    53     1     0     0
SMALL
No Charge or Current Charge


@<TRIPOS>ATOM
      1 NAA         -4.2230    -3.8420    -0.8860 n1         1 XT3      -0.447000
      2 CAC         -4.6340    -2.7500    -0.8410 cg         1 XT3       0.332000
      3 CAW         -5.1560    -1.4120    -0.7940 ca         1 XT3      -0.048000
      4 CAF         -6.4260    -1.1400    -1.3420 ca         1 XT3      -0.040000
      5 CAD         -6.9470     0.1650    -1.3020 ca         1 XT3      -0.143000
      6 CAE         -6.2080     1.2030    -0.7110 ca         1 XT3      -0.054000
      7 CAG         -4.9420     0.9360    -0.1630 ca         1 XT3      -0.183000
      8 CAZ         -4.4090    -0.3670    -0.2110 ca         1 XT3       0.159100
      9 OAT         -3.1700    -0.6270     0.3400 os         1 XT3      -0.248200
     10 CAY         -2.0810     0.2030     0.1640 ca         1 XT3       0.000100
     11 CAU         -1.1420     0.3390     1.2050 ca         1 XT3       0.153100
     12 CAJ         -0.0220     1.1690     1.0420 ca         1 XT3      -0.121000
     13 OAB         -1.3210    -0.3310     2.3810 oh         1 XT3      -0.520100
     14 CAI         -1.8790     0.8900    -1.0500 ca         1 XT3      -0.077000
     15 CAH         -0.7560     1.7200    -1.2100 ca         1 XT3      -0.130000
     16 CAV          0.1820     1.8650    -0.1690 ca         1 XT3      -0.082300
     17 CAQ          1.3980     2.7730    -0.3600 c3         1 XT3       0.124900
     18 NBB          2.6560     2.2140     0.1650 na         1 XT3       0.121800
     19 CAK          3.3870     1.1800    -0.3610 cc         1 XT3      -0.207000
     20 NAS          3.2380     2.7190     1.2900 nc         1 XT3      -0.208800
     21 NAR          4.3220     2.0190     1.4940 nd         1 XT3      -0.358000
     22 CAX          4.4400     1.0680     0.5020 cd         1 XT3       0.215300
     23 CBA          5.5630     0.0560     0.3910 c6         1 XT3      -0.083000
     24 CAO          6.3500     0.2370    -0.9380 c6         1 XT3      -0.068900
     25 CAM          7.4900    -0.8050    -1.0640 c6         1 XT3      -0.073900
     26 CAL          6.9460    -2.2490    -0.9360 c6         1 XT3      -0.075400
     27 CAN          6.1600    -2.4370     0.3850 c6         1 XT3      -0.073900
     28 CAP          5.0200    -1.3950     0.5120 c6         1 XT3      -0.068900
     29 H1          -7.0090    -1.9370    -1.7990 ha         1 XT3       0.130000
     30 H2          -7.9280     0.3710    -1.7260 ha         1 XT3       0.126000
     31 H3          -6.6160     2.2120    -0.6750 ha         1 XT3       0.120000
     32 H4          -4.3770     1.7400     0.3020 ha         1 XT3       0.134000
     33 H5           0.6860     1.2680     1.8620 ha         1 XT3       0.151000
     34 H6          -2.1480    -0.8530     2.2930 ho         1 XT3       0.486000
     35 H7          -2.5850     0.7800    -1.8700 ha         1 XT3       0.134000
     36 H8          -0.6140     2.2470    -2.1520 ha         1 XT3       0.121000
     37 H9           1.5430     2.9780    -1.4280 h1         1 XT3       0.080700
     38 H10          1.2060     3.7340     0.1330 h1         1 XT3       0.080700
     39 H11          3.1120     0.6320    -1.2510 h4         1 XT3       0.167000
     40 H12          6.2620     0.2250     1.2220 hc         1 XT3       0.071700
     41 H13          5.6700     0.1380    -1.7950 hc         1 XT3       0.041200
     42 H14          6.7690     1.2510    -0.9880 hc         1 XT3       0.041200
     43 H15          8.0010    -0.6830    -2.0290 hc         1 XT3       0.040450
     44 H16          8.2450    -0.6230    -0.2870 hc         1 XT3       0.040450
     45 H17          6.2930    -2.4750    -1.7900 hc         1 XT3       0.037700
     46 H18          7.7770    -2.9660    -0.9800 hc         1 XT3       0.037700
     47 H19          5.7430    -3.4520     0.4300 hc         1 XT3       0.040450
     48 H20          6.8440    -2.3430     1.2400 hc         1 XT3       0.040450
     49 H21          4.5080    -1.5230     1.4760 hc         1 XT3       0.041200
     50 H22          4.2670    -1.5820    -0.2670 hc         1 XT3       0.041200
@<TRIPOS>BOND
     1     1     2 3   
     2     2     3 1   
     3     3     4 ar  
     4     3     8 ar  
     5     4     5 ar  
     6     4    29 1   
     7     5     6 ar  
     8     5    30 1   
     9     6     7 ar  
    10     6    31 1   
    11     7     8 ar  
    12     7    32 1   
    13     8     9 1   
    14     9    10 1   
    15    10    11 ar  
    16    10    14 ar  
    17    11    12 ar  
    18    11    13 1   
    19    12    16 ar  
    20    12    33 1   
    21    13    34 1   
    22    14    15 ar  
    23    14    35 1   
    24    15    16 ar  
    25    15    36 1   
    26    16    17 1   
    27    17    18 1   
    28    17    37 1   
    29    17    38 1   
    30    18    19 1   
    31    18    20 1   
    32    19    22 2   
    33    19    39 1   
    34    20    21 2   
    35    21    22 1   
    36    22    23 1   
    37    23    24 1   
    38    23    28 1   
    39    23    40 1   
    40    24    25 1   
    41    24    41 1   
    42    24    42 1   
    43    25    26 1   
    44    25    43 1   
    45    25    44 1   
    46    26    27 1   
    47    26    45 1   
    48    26    46 1   
    49    27    28 1   
    50    27    47 1   
    51    27    48 1   
    52    28    49 1   
    53    28    50 1   
@<TRIPOS>SUBSTRUCTURE
     1 XT3         1 TEMP              0 ****  ****    0 ROOT
