@<TRIPOS>MOLECULE
XT3
   50    53     1     0     0
SMALL
bcc


@<TRIPOS>ATOM
      1 NAA         -4.6180    -3.8560    -0.2470 n1         1 XT3      -0.357800
      2 CAC         -4.9130    -2.7430    -0.3010 cg         1 XT3       0.242800
      3 CAW         -5.2920    -1.3730    -0.3700 ca         1 XT3      -0.048000
      4 CAF         -6.6360    -1.0160    -0.4690 ca         1 XT3      -0.058000
      5 CAD         -6.9930     0.3180    -0.5370 ca         1 XT3      -0.161000
      6 CAE         -6.0020     1.2920    -0.5030 ca         1 XT3      -0.072000
      7 CAG         -4.6600     0.9520    -0.4040 ca         1 XT3      -0.201000
      8 CAZ         -4.3020    -0.3850    -0.3340 ca         1 XT3       0.159100
      9 OAT         -3.0290    -0.8350    -0.2190 os         1 XT3      -0.248200
     10 CAY         -1.9850     0.0590    -0.3220 ca         1 XT3       0.000100
     11 CAU         -1.3600     0.4720     0.8560 ca         1 XT3       0.153100
     12 CAJ         -0.2790     1.3390     0.7640 ca         1 XT3      -0.139000
     13 OAB         -1.7650     0.0700     2.0710 oh         1 XT3      -0.481100
     14 CAI         -1.5450     0.4950    -1.5570 ca         1 XT3      -0.095000
     15 CAH         -0.4640     1.3610    -1.6350 ca         1 XT3      -0.148000
     16 CAV          0.1670     1.7880    -0.4730 ca         1 XT3      -0.082300
     17 CAQ          1.3470     2.7210    -0.5460 c3         1 XT3       0.095600
     18 NBB          2.5410     2.1120     0.0040 na         1 XT3       0.100400
     19 CAK          3.2650     1.1020    -0.5100 cc         1 XT3      -0.239600
     20 NAS          2.9950     2.4610     1.1930 nc         1 XT3      -0.208800
     21 NAR          4.0080     1.7100     1.4640 nd         1 XT3      -0.358000
     22 CAX          4.2190     0.8470     0.4440 cd         1 XT3       0.280600
     23 CBA          5.3350    -0.1420     0.4380 c6         1 XT3      -0.083000
     24 CAO          6.5630     0.4030    -0.3040 c6         1 XT3      -0.068900
     25 CAM          7.7070    -0.6050    -0.3040 c6         1 XT3      -0.073900
     26 CAL          7.2690    -1.9470    -0.8830 c6         1 XT3      -0.075400
     27 CAN          6.0490    -2.4930    -0.1500 c6         1 XT3      -0.073900
     28 CAP          4.9030    -1.4870    -0.1510 c6         1 XT3      -0.068900
     29 H1          -7.3900    -1.7910    -0.4940 ha         1 XT3       0.148000
     30 H2          -8.0340     0.5970    -0.6150 ha         1 XT3       0.144000
     31 H3          -6.2720     2.3380    -0.5540 ha         1 XT3       0.138000
     32 H4          -3.9110     1.7310    -0.3820 ha         1 XT3       0.152000
     33 H5           0.2110     1.6610     1.6770 ha         1 XT3       0.169000
     34 H6          -2.4240    -0.6310     2.0030 ho         1 XT3       0.447000
     35 H7          -2.0410     0.1520    -2.4560 ha         1 XT3       0.152000
     36 H8          -0.1140     1.6970    -2.6020 ha         1 XT3       0.139000
     37 H9           1.5480     3.0120    -1.5760 h1         1 XT3       0.080700
     38 H10          1.1650     3.6310     0.0260 h1         1 XT3       0.080700
     39 H11          3.0510     0.6670    -1.4720 h4         1 XT3       0.185000
     40 H12          5.6260    -0.3040     1.4830 hc         1 XT3       0.071700
     41 H13          6.2790     0.6370    -1.3360 hc         1 XT3       0.041200
     42 H14          6.8820     1.3430     0.1530 hc         1 XT3       0.041200
     43 H15          8.5540    -0.2070    -0.8690 hc         1 XT3       0.040450
     44 H16          8.0620    -0.7510     0.7230 hc         1 XT3       0.040450
     45 H17          7.0260    -1.8210    -1.9440 hc         1 XT3       0.037700
     46 H18          8.0910    -2.6650    -0.8360 hc         1 XT3       0.037700
     47 H19          5.7210    -3.4300    -0.6050 hc         1 XT3       0.040450
     48 H20          6.3220    -2.7290     0.8840 hc         1 XT3       0.040450
     49 H21          4.0510    -1.8780     0.4100 hc         1 XT3       0.041200
     50 H22          4.5570    -1.3390    -1.1810 hc         1 XT3       0.041200
@<TRIPOS>BOND
     1     1     2 3   
     2     2     3 1   
     3     3     4 ar  
     4     3     8 ar  
     5     4     5 ar  
     6     4    29 1   
     7     5     6 ar  
     8     5    30 1   
     9     6     7 ar  
    10     6    31 1   
    11     7     8 ar  
    12     7    32 1   
    13     8     9 1   
    14     9    10 1   
    15    10    11 ar  
    16    10    14 ar  
    17    11    12 ar  
    18    11    13 1   
    19    12    16 ar  
    20    12    33 1   
    21    13    34 1   
    22    14    15 ar  
    23    14    35 1   
    24    15    16 ar  
    25    15    36 1   
    26    16    17 1   
    27    17    18 1   
    28    17    37 1   
    29    17    38 1   
    30    18    19 1   
    31    18    20 1   
    32    19    22 2   
    33    19    39 1   
    34    20    21 2   
    35    21    22 1   
    36    22    23 1   
    37    23    24 1   
    38    23    28 1   
    39    23    40 1   
    40    24    25 1   
    41    24    41 1   
    42    24    42 1   
    43    25    26 1   
    44    25    43 1   
    45    25    44 1   
    46    26    27 1   
    47    26    45 1   
    48    26    46 1   
    49    27    28 1   
    50    27    47 1   
    51    27    48 1   
    52    28    49 1   
    53    28    50 1   
@<TRIPOS>SUBSTRUCTURE
     1 XT3         1 TEMP              0 ****  ****    0 ROOT
