@<TRIPOS>MOLECULE
XT4
  103   108     1     0     0
SMALL
No Charge or Current Charge


@<TRIPOS>ATOM
      1 C13        -26.8880     1.0250    -8.6520 cx         1 XT4      -0.035500
      2 C15        -31.1450    -1.0060    -5.2980 c3         1 XT4       0.071700
      3 C22        -30.5640    -2.6740    -7.2340 c3         1 XT4      -0.079400
      4 C24        -26.5090    -1.5360    -1.0230 ca         1 XT4       0.575300
      5 C28        -24.3410    -1.4810     0.6490 ca         1 XT4       0.220000
      6 C01        -27.2560    -1.1220    -4.7090 c5         1 XT4       0.032700
      7 C02        -26.6410    -2.3230    -3.9240 c5         1 XT4      -0.109400
      8 C04        -26.7730    -1.1830    -6.1900 c          1 XT4       0.591100
      9 C05        -27.6900    -2.5830    -2.8040 c5         1 XT4       0.165300
     10 C06        -29.0310    -2.4330    -3.5780 c5         1 XT4       0.108000
     11 C08        -29.6750    -0.5100    -5.1230 c          1 XT4       0.607100
     12 C11        -25.7690     0.2910    -7.9240 cx         1 XT4      -0.068600
     13 C12        -24.8200    -0.6860    -8.6460 c          1 XT4       0.677100
     14 C14        -25.6060     1.7460    -8.3180 cx         1 XT4      -0.095400
     15 C18        -31.4120    -1.4650    -6.7580 c3         1 XT4      -0.089400
     16 C23        -30.5890    -2.9060    -8.7680 c3         1 XT4      -0.066400
     17 C25        -26.0240    -0.3190    -0.4510 ca         1 XT4       0.212300
     18 C27        -24.8380    -2.7040     0.0920 ca         1 XT4       0.256000
     19 C29        -24.1840    -3.9090     0.4090 ca         1 XT4      -0.062000
     20 C31        -23.2170    -1.5140     1.4930 ca         1 XT4      -0.102000
     21 C32        -26.7190     1.0170    -0.7670 c3         1 XT4       0.279700
     22 C33        -23.0610    -3.9270     1.2540 ca         1 XT4      -0.151000
     23 C34        -22.5740    -2.7220     1.8000 ca         1 XT4       0.137100
     24 C40        -22.0470    -2.7410    -6.4930 cx         1 XT4      -0.399000
     25 C41        -21.0590    -1.8340    -5.7810 cx         1 XT4      -0.078400
     26 C42        -20.6000    -3.1690    -6.3260 cx         1 XT4      -0.078400
     27 C43        -23.1440    -3.4470    -5.6860 c3         1 XT4      -0.043100
     28 C44        -27.2750     0.6690   -10.0490 c2         1 XT4      -0.192200
     29 C45        -28.3440    -0.0700   -10.4020 c2         1 XT4      -0.189200
     30 C46        -29.3860    -0.6810    -9.4750 c3         1 XT4      -0.048200
     31 C47        -29.4470    -2.2220    -9.5720 c3         1 XT4      -0.073400
     32 C48        -35.2940     1.3350    -3.9460 c3         1 XT4       0.226000
     33 C49        -35.4530     2.8670    -3.8290 c3         1 XT4      -0.109100
     34 C50        -36.2410     0.7890    -5.0460 c3         1 XT4      -0.109100
     35 C51        -35.5250     0.6730    -2.5630 c3         1 XT4      -0.109100
     36 C56        -20.7450    -3.8540     3.0130 c3         1 XT4       0.148900
     37 F52        -26.1470     2.0740    -0.1400 f          1 XT4      -0.096667
     38 F53        -28.0190     1.0110    -0.3920 f          1 XT4      -0.096667
     39 F54        -26.6890     1.2970    -2.0900 f          1 XT4      -0.096667
     40 N03        -28.7120    -1.3890    -4.5820 n          1 XT4      -0.388800
     41 N10        -26.1140    -0.0200    -6.5440 ns         1 XT4      -0.473900
     42 N17        -32.0750     0.0820    -4.9400 ns         1 XT4      -0.498900
     43 N26        -25.9180    -2.7290    -0.7300 nb         1 XT4      -0.736000
     44 N30        -24.9360    -0.2920     0.3790 nb         1 XT4      -0.566000
     45 N35        -23.8190    -1.1220    -7.8440 ns         1 XT4      -0.566300
     46 O07        -27.6390    -1.4910    -1.8330 os         1 XT4      -0.438300
     47 O09        -26.9250    -2.1160    -6.9660 o          1 XT4      -0.571100
     48 O16        -29.3320     0.6000    -5.5200 o          1 XT4      -0.617100
     49 O20        -33.9180     1.1490    -4.3520 os         1 XT4      -0.472100
     50 O21        -33.9280    -1.1690    -4.4560 o          1 XT4      -0.551000
     51 O36        -24.9210    -1.0240    -9.8160 o          1 XT4      -0.547100
     52 O38        -23.3040    -3.4180    -8.8140 o          1 XT4      -0.515000
     53 O39        -21.5670    -1.5630    -8.8970 o          1 XT4      -0.515000
     54 O55        -21.4760    -2.6740     2.6360 os         1 XT4      -0.335100
     55 S37        -22.6570    -2.2540    -8.1980 s6         1 XT4       1.251800
     56 H131       -27.7430     1.3240    -8.0480 hc         1 XT4       0.103700
     57 H151       -31.3250    -1.8500    -4.6220 h1         1 XT4       0.067700
     58 H221       -30.9460    -3.5730    -6.7340 hc         1 XT4       0.049200
     59 H222       -29.5230    -2.5710    -6.9120 hc         1 XT4       0.049200
     60 H011       -26.9930    -0.1570    -4.2550 h1         1 XT4       0.082700
     61 H021       -26.5520    -3.2160    -4.5550 hc         1 XT4       0.073200
     62 H022       -25.6350    -2.1080    -3.5480 hc         1 XT4       0.073200
     63 H051       -27.6120    -3.5660    -2.3170 h1         1 XT4       0.093700
     64 H062       -29.8470    -2.1360    -2.9070 h1         1 XT4       0.076200
     65 H061       -29.3110    -3.3720    -4.0720 h1         1 XT4       0.076200
     66 H141       -24.9300     1.9830    -9.1370 hc         1 XT4       0.088200
     67 H142       -25.6360     2.4950    -7.5310 hc         1 XT4       0.088200
     68 H181       -31.2500    -0.6080    -7.4200 hc         1 XT4       0.056700
     69 H182       -32.4710    -1.7300    -6.8630 hc         1 XT4       0.056700
     70 H231       -31.5620    -2.5980    -9.1740 hc         1 XT4       0.036200
     71 H232       -30.5160    -3.9850    -8.9490 hc         1 XT4       0.036200
     72 H291       -24.5560    -4.8400    -0.0090 ha         1 XT4       0.134000
     73 H311       -22.8400    -0.5880     1.9150 ha         1 XT4       0.153000
     74 H331       -22.5870    -4.8800     1.4720 ha         1 XT4       0.125000
     75 H411       -21.1370    -1.7320    -4.7000 hc         1 XT4       0.088200
     76 H412       -20.7110    -0.9370    -6.2910 hc         1 XT4       0.088200
     77 H421       -20.3740    -3.9550    -5.6090 hc         1 XT4       0.088200
     78 H422       -19.9490    -3.1590    -7.1990 hc         1 XT4       0.088200
     79 H433       -22.7920    -3.7210    -4.6830 hc         1 XT4       0.053367
     80 H432       -24.0260    -2.8070    -5.5580 hc         1 XT4       0.053367
     81 H431       -23.4700    -4.3720    -6.1800 hc         1 XT4       0.053367
     82 H441       -26.6110     1.0530   -10.8270 ha         1 XT4       0.190000
     83 H451       -28.5300    -0.2690   -11.4600 ha         1 XT4       0.168000
     84 H462       -29.1850    -0.4070    -8.4340 hc         1 XT4       0.046700
     85 H461       -30.3730    -0.2690    -9.7210 hc         1 XT4       0.046700
     86 H472       -29.5600    -2.5010   -10.6270 hc         1 XT4       0.048200
     87 H471       -28.4840    -2.6350    -9.2480 hc         1 XT4       0.048200
     88 H491       -36.4720     3.1320    -3.5230 hc         1 XT4       0.050144
     89 H492       -34.7580     3.2750    -3.0850 hc         1 XT4       0.050144
     90 H493       -35.2490     3.3550    -4.7900 hc         1 XT4       0.050144
     91 H501       -37.2700     1.1210    -4.8640 hc         1 XT4       0.050144
     92 H502       -35.9390     1.1530    -6.0360 hc         1 XT4       0.050144
     93 H503       -36.2540    -0.3060    -5.0700 hc         1 XT4       0.050144
     94 H511       -36.4840     0.9940    -2.1420 hc         1 XT4       0.050144
     95 H513       -35.5510    -0.4200    -2.6310 hc         1 XT4       0.050144
     96 H512       -34.7340     0.9580    -1.8590 hc         1 XT4       0.050144
     97 H561       -19.9140    -3.5900     3.6790 h1         1 XT4       0.044700
     98 H563       -21.3930    -4.5620     3.5440 h1         1 XT4       0.044700
     99 H562       -20.3260    -4.3530     2.1300 h1         1 XT4       0.044700
    100 H101       -26.0460     0.7030    -5.8360 hn         1 XT4       0.325500
    101 H171       -31.7510     1.0400    -4.9930 hn         1 XT4       0.335500
    102 H351       -23.7710    -0.8000    -6.8950 hn         1 XT4       0.338500
    103 C19        -33.3760    -0.0870    -4.5690 c          1 XT4       0.650100
@<TRIPOS>BOND
     1     1    12 1   
     2     1    14 1   
     3     1    28 1   
     4     1    56 1   
     5     2    11 1   
     6     2    15 1   
     7     2    42 1   
     8     2    57 1   
     9     3    15 1   
    10     3    16 1   
    11     3    58 1   
    12     3    59 1   
    13     4    17 ar  
    14     4    43 ar  
    15     4    46 1   
    16     5    18 ar  
    17     5    20 ar  
    18     5    44 ar  
    19     6     7 1   
    20     6     8 1   
    21     6    40 1   
    22     6    60 1   
    23     7     9 1   
    24     7    61 1   
    25     7    62 1   
    26     8    41 1   
    27     8    47 2   
    28     9    10 1   
    29     9    46 1   
    30     9    63 1   
    31    10    40 1   
    32    10    64 1   
    33    10    65 1   
    34    11    40 1   
    35    11    48 2   
    36    12    13 1   
    37    12    14 1   
    38    12    41 1   
    39    13    45 1   
    40    13    51 2   
    41    14    66 1   
    42    14    67 1   
    43    15    68 1   
    44    15    69 1   
    45    16    31 1   
    46    16    70 1   
    47    16    71 1   
    48    17    21 1   
    49    17    44 ar  
    50    18    19 ar  
    51    18    43 ar  
    52    19    22 ar  
    53    19    72 1   
    54    20    23 ar  
    55    20    73 1   
    56    21    37 1   
    57    21    38 1   
    58    21    39 1   
    59    22    23 ar  
    60    22    74 1   
    61    23    54 1   
    62    24    25 1   
    63    24    26 1   
    64    24    27 1   
    65    24    55 1   
    66    25    26 1   
    67    25    75 1   
    68    25    76 1   
    69    26    77 1   
    70    26    78 1   
    71    27    79 1   
    72    27    80 1   
    73    27    81 1   
    74    28    29 2   
    75    28    82 1   
    76    29    30 1   
    77    29    83 1   
    78    30    31 1   
    79    30    84 1   
    80    30    85 1   
    81    31    86 1   
    82    31    87 1   
    83    32    33 1   
    84    32    34 1   
    85    32    35 1   
    86    32    49 1   
    87    33    88 1   
    88    33    89 1   
    89    33    90 1   
    90    34    91 1   
    91    34    92 1   
    92    34    93 1   
    93    35    94 1   
    94    35    95 1   
    95    35    96 1   
    96    36    54 1   
    97    36    97 1   
    98    36    98 1   
    99    36    99 1   
   100    41   100 1   
   101    42   101 1   
   102    42   103 1   
   103    45    55 1   
   104    45   102 1   
   105    49   103 1   
   106    50   103 2   
   107    52    55 2   
   108    53    55 2   
@<TRIPOS>SUBSTRUCTURE
     1 XT4         1 TEMP              0 ****  ****    0 ROOT
