@<TRIPOS>MOLECULE
XT4
  103   108     1     0     0
SMALL
abcg2


@<TRIPOS>ATOM
      1 C13        -27.1960     0.9190    -9.0510 cx         1 XT4      -0.035500
      2 C15        -31.0150    -1.5480    -5.8420 c3         1 XT4       0.071700
      3 C22        -30.3230    -3.0410    -7.7980 c3         1 XT4      -0.079400
      4 C24        -27.1140    -1.7510    -1.1980 ca         1 XT4       0.575300
      5 C28        -25.8940    -1.6670     1.1960 ca         1 XT4       0.220000
      6 C01        -27.3100    -0.9820    -5.0800 c5         1 XT4       0.032700
      7 C02        -26.4970    -2.0220    -4.2990 c5         1 XT4      -0.109400
      8 C04        -26.8280    -0.8370    -6.5180 c          1 XT4       0.591100
      9 C05        -27.5310    -2.6410    -3.3710 c5         1 XT4       0.165300
     10 C06        -28.7660    -2.7240    -4.2450 c5         1 XT4       0.108000
     11 C08        -29.6380    -0.8860    -5.7230 c          1 XT4       0.607100
     12 C11        -25.9530     0.6570    -8.1910 cx         1 XT4      -0.068600
     13 C12        -24.7560     0.0330    -8.8290 c          1 XT4       0.677100
     14 C14        -26.3110     2.0430    -8.6490 cx         1 XT4      -0.095400
     15 C18        -31.2550    -1.9390    -7.3030 c3         1 XT4      -0.089400
     16 C23        -30.3770    -3.2620    -9.3160 c3         1 XT4      -0.066400
     17 C25        -27.3740    -0.7140    -0.2410 ca         1 XT4       0.212300
     18 C27        -25.6040    -2.6580     0.2310 ca         1 XT4       0.256000
     19 C29        -24.6610    -3.6470     0.5510 ca         1 XT4      -0.062000
     20 C31        -25.2720    -1.6850     2.4510 ca         1 XT4      -0.102000
     21 C32        -28.3580     0.3910    -0.5410 c3         1 XT4       0.279700
     22 C33        -24.0570    -3.6620     1.7830 ca         1 XT4      -0.151000
     23 C34        -24.3660    -2.6790     2.7530 ca         1 XT4       0.137100
     24 C40        -22.3840    -2.6260    -7.1290 cx         1 XT4      -0.399000
     25 C41        -21.8080    -2.0080    -5.8870 cx         1 XT4      -0.078400
     26 C42        -20.9550    -2.8780    -6.7470 cx         1 XT4      -0.078400
     27 C43        -23.4060    -3.7310    -7.0510 c3         1 XT4      -0.043100
     28 C44        -27.3550     0.4670   -10.4480 c2         1 XT4      -0.192200
     29 C45        -28.3320    -0.3360   -10.8750 c2         1 XT4      -0.189200
     30 C46        -29.4030    -0.9890   -10.0580 c3         1 XT4      -0.048200
     31 C47        -29.3050    -2.5150   -10.1090 c3         1 XT4      -0.073400
     32 C48        -33.1700     1.5670    -2.8140 c3         1 XT4       0.226000
     33 C49        -34.3670     2.4540    -3.1370 c3         1 XT4      -0.109100
     34 C50        -33.5070     0.6540    -1.6410 c3         1 XT4      -0.109100
     35 C51        -31.9510     2.4340    -2.5260 c3         1 XT4      -0.109100
     36 C56        -22.8910    -3.6530     4.3470 c3         1 XT4       0.148900
     37 F52        -28.3650     1.3120     0.4160 f          1 XT4      -0.096667
     38 F53        -29.6010    -0.0890    -0.6460 f          1 XT4      -0.096667
     39 F54        -28.0650     1.0110    -1.6880 f          1 XT4      -0.096667
     40 N03        -28.6560    -1.5360    -5.0790 n          1 XT4      -0.388800
     41 N10        -26.2080     0.3250    -6.8290 ns         1 XT4      -0.473900
     42 N17        -32.0360    -0.6160    -5.4330 ns         1 XT4      -0.498900
     43 N26        -26.2330    -2.6670    -0.9690 nb         1 XT4      -0.736000
     44 N30        -26.7860    -0.6870     0.9060 nb         1 XT4      -0.566000
     45 N35        -24.0250    -0.7750    -7.9980 ns         1 XT4      -0.566300
     46 O07        -27.8360    -1.7260    -2.3110 os         1 XT4      -0.438300
     47 O09        -26.9620    -1.7390    -7.3220 o          1 XT4      -0.571100
     48 O16        -29.4310     0.1930    -6.2630 o          1 XT4      -0.617100
     49 O20        -32.9890     0.8040    -4.0380 os         1 XT4      -0.472100
     50 O21        -31.2110    -0.4270    -3.3470 o          1 XT4      -0.551000
     51 O36        -24.4440     0.2210    -9.9830 o          1 XT4      -0.547100
     52 O38        -22.9220    -2.3230    -9.6950 o          1 XT4      -0.515000
     53 O39        -21.5440    -0.5640    -8.5810 o          1 XT4      -0.515000
     54 O55        -23.8220    -2.6520     3.9790 os         1 XT4      -0.335100
     55 S37        -22.6140    -1.5440    -8.5100 s6         1 XT4       1.251800
     56 H131       -28.0860     0.8270    -8.4410 hc         1 XT4       0.103700
     57 H151       -31.0760    -2.4490    -5.2280 h1         1 XT4       0.067700
     58 H221       -30.5940    -3.9670    -7.2830 hc         1 XT4       0.049200
     59 H222       -29.2890    -2.8360    -7.5090 hc         1 XT4       0.049200
     60 H011       -27.2950    -0.0170    -4.5650 h1         1 XT4       0.082700
     61 H021       -26.1150    -2.8010    -4.9620 hc         1 XT4       0.073200
     62 H022       -25.6490    -1.5850    -3.7740 hc         1 XT4       0.073200
     63 H051       -27.2360    -3.6100    -2.9700 h1         1 XT4       0.093700
     64 H062       -29.6820    -2.7260    -3.6580 h1         1 XT4       0.076200
     65 H061       -28.7310    -3.6410    -4.8380 h1         1 XT4       0.076200
     66 H141       -25.6660     2.4850    -9.3970 hc         1 XT4       0.088200
     67 H142       -26.6640     2.7300    -7.8900 hc         1 XT4       0.088200
     68 H181       -31.1740    -1.0420    -7.9210 hc         1 XT4       0.056700
     69 H182       -32.2890    -2.2830    -7.3940 hc         1 XT4       0.056700
     70 H231       -31.3710    -3.0020    -9.6980 hc         1 XT4       0.036200
     71 H232       -30.2530    -4.3280    -9.5220 hc         1 XT4       0.036200
     72 H291       -24.4250    -4.4070    -0.1820 ha         1 XT4       0.134000
     73 H311       -25.5170    -0.9190     3.1760 ha         1 XT4       0.153000
     74 H331       -23.3430    -4.4440     1.9980 ha         1 XT4       0.125000
     75 H411       -22.1860    -2.4020    -4.9520 hc         1 XT4       0.088200
     76 H412       -21.5960    -0.9470    -5.8730 hc         1 XT4       0.088200
     77 H421       -20.7360    -3.8860    -6.4200 hc         1 XT4       0.088200
     78 H422       -20.1620    -2.4090    -7.3150 hc         1 XT4       0.088200
     79 H433       -23.2060    -4.3400    -6.1700 hc         1 XT4       0.053367
     80 H432       -24.4220    -3.3440    -6.9610 hc         1 XT4       0.053367
     81 H431       -23.3560    -4.3800    -7.9230 hc         1 XT4       0.053367
     82 H441       -26.6460     0.8440   -11.1730 ha         1 XT4       0.190000
     83 H451       -28.3540    -0.5660   -11.9370 ha         1 XT4       0.168000
     84 H462       -29.3610    -0.6500    -9.0230 hc         1 XT4       0.046700
     85 H461       -30.3830    -0.6870   -10.4440 hc         1 XT4       0.046700
     86 H472       -29.3510    -2.8370   -11.1540 hc         1 XT4       0.048200
     87 H471       -28.3190    -2.8160    -9.7420 hc         1 XT4       0.048200
     88 H491       -34.6040     3.0790    -2.2770 hc         1 XT4       0.050144
     89 H492       -34.1580     3.1120    -3.9820 hc         1 XT4       0.050144
     90 H493       -35.2500     1.8590    -3.3710 hc         1 XT4       0.050144
     91 H501       -33.8160     1.2650    -0.7920 hc         1 XT4       0.050144
     92 H502       -34.3370    -0.0100    -1.8870 hc         1 XT4       0.050144
     93 H503       -32.6580     0.0510    -1.3260 hc         1 XT4       0.050144
     94 H511       -32.1890     3.1310    -1.7210 hc         1 XT4       0.050144
     95 H513       -31.0860     1.8540    -2.2130 hc         1 XT4       0.050144
     96 H512       -31.6770     3.0260    -3.4020 hc         1 XT4       0.050144
     97 H561       -22.6040    -3.4400     5.3730 h1         1 XT4       0.044700
     98 H563       -23.3290    -4.6530     4.3060 h1         1 XT4       0.044700
     99 H562       -21.9960    -3.6300     3.7210 h1         1 XT4       0.044700
    100 H101       -26.1670     1.0630    -6.1410 hn         1 XT4       0.325500
    101 H171       -32.6560    -0.2330    -6.1300 hn         1 XT4       0.335500
    102 H351       -24.1840    -0.7390    -6.9970 hn         1 XT4       0.338500
    103 C19        -32.0200    -0.0900    -4.1900 c          1 XT4       0.650100
@<TRIPOS>BOND
     1     1    12 1   
     2     1    14 1   
     3     1    28 1   
     4     1    56 1   
     5     2    11 1   
     6     2    15 1   
     7     2    42 1   
     8     2    57 1   
     9     3    15 1   
    10     3    16 1   
    11     3    58 1   
    12     3    59 1   
    13     4    17 ar  
    14     4    43 ar  
    15     4    46 1   
    16     5    18 ar  
    17     5    20 ar  
    18     5    44 ar  
    19     6     7 1   
    20     6     8 1   
    21     6    40 1   
    22     6    60 1   
    23     7     9 1   
    24     7    61 1   
    25     7    62 1   
    26     8    41 1   
    27     8    47 2   
    28     9    10 1   
    29     9    46 1   
    30     9    63 1   
    31    10    40 1   
    32    10    64 1   
    33    10    65 1   
    34    11    40 1   
    35    11    48 2   
    36    12    13 1   
    37    12    14 1   
    38    12    41 1   
    39    13    45 1   
    40    13    51 2   
    41    14    66 1   
    42    14    67 1   
    43    15    68 1   
    44    15    69 1   
    45    16    31 1   
    46    16    70 1   
    47    16    71 1   
    48    17    21 1   
    49    17    44 ar  
    50    18    19 ar  
    51    18    43 ar  
    52    19    22 ar  
    53    19    72 1   
    54    20    23 ar  
    55    20    73 1   
    56    21    37 1   
    57    21    38 1   
    58    21    39 1   
    59    22    23 ar  
    60    22    74 1   
    61    23    54 1   
    62    24    25 1   
    63    24    26 1   
    64    24    27 1   
    65    24    55 1   
    66    25    26 1   
    67    25    75 1   
    68    25    76 1   
    69    26    77 1   
    70    26    78 1   
    71    27    79 1   
    72    27    80 1   
    73    27    81 1   
    74    28    29 2   
    75    28    82 1   
    76    29    30 1   
    77    29    83 1   
    78    30    31 1   
    79    30    84 1   
    80    30    85 1   
    81    31    86 1   
    82    31    87 1   
    83    32    33 1   
    84    32    34 1   
    85    32    35 1   
    86    32    49 1   
    87    33    88 1   
    88    33    89 1   
    89    33    90 1   
    90    34    91 1   
    91    34    92 1   
    92    34    93 1   
    93    35    94 1   
    94    35    95 1   
    95    35    96 1   
    96    36    54 1   
    97    36    97 1   
    98    36    98 1   
    99    36    99 1   
   100    41   100 1   
   101    42   101 1   
   102    42   103 1   
   103    45    55 1   
   104    45   102 1   
   105    49   103 1   
   106    50   103 2   
   107    52    55 2   
   108    53    55 2   
@<TRIPOS>SUBSTRUCTURE
     1 XT4         1 TEMP              0 ****  ****    0 ROOT
