@<TRIPOS>MOLECULE
XT5
   43    46     1     0     0
SMALL
bcc


@<TRIPOS>ATOM
      1 CAK         -5.9430    -1.5880     0.9570 cx         1 XT5      -0.125900
      2 CAL         -4.7420    -2.3940     0.5940 cx         1 XT5      -0.125900
      3 CAW         -5.2530    -1.3530    -0.3600 cx         1 XT5      -0.144000
      4 CAT         -4.4960    -0.1150    -0.5960 cc         1 XT5       0.304600
      5 CAJ         -3.5600     0.5220     0.1800 cd         1 XT5      -0.239600
      6 NAN         -4.6700     0.6250    -1.7160 nc         1 XT5      -0.355000
      7 NAO         -3.9090     1.6620    -1.6670 nd         1 XT5      -0.204800
      8 NAX         -3.2410     1.6210    -0.5290 na         1 XT5       0.101400
      9 CAM         -2.2600     2.6380    -0.2160 c3         1 XT5       0.095600
     10 CAR         -0.8540     2.1120    -0.3200 ca         1 XT5      -0.088300
     11 CAI         -0.0670     1.9830     0.8180 ca         1 XT5      -0.204000
     12 CAS          1.2300     1.4900     0.7380 ca         1 XT5       0.119100
     13 OAB          2.0430     1.3510     1.7970 oh         1 XT5      -0.472100
     14 CAG         -0.3410     1.7400    -1.5540 ca         1 XT5      -0.126000
     15 CAH          0.9480     1.2360    -1.6410 ca         1 XT5      -0.103000
     16 CAV          1.7330     1.1100    -0.5100 ca         1 XT5       0.083100
     17 OAP          3.0140     0.6660    -0.6140 os         1 XT5      -0.242200
     18 CAU          3.3340    -0.5620    -0.0980 ca         1 XT5       0.133100
     19 CAF          2.3960    -1.5680     0.0680 ca         1 XT5      -0.187000
     20 CAD          2.7960    -2.8020     0.5620 ca         1 XT5      -0.104000
     21 CAC          4.1240    -3.0260     0.8810 ca         1 XT5      -0.151000
     22 CAE          5.0480    -2.0050     0.7050 ca         1 XT5      -0.106000
     23 CAQ          4.6780    -0.7580     0.2200 ca         1 XT5      -0.086300
     24 CAA          5.6740     0.3500     0.0540 c3         1 XT5      -0.036800
     25 H1          -6.9110    -2.0720     0.9400 hc         1 XT5       0.071700
     26 H2          -5.8400    -0.8270     1.7200 hc         1 XT5       0.071700
     27 H3          -3.8120    -2.1950     1.1120 hc         1 XT5       0.071700
     28 H4          -4.8800    -3.4320     0.3240 hc         1 XT5       0.071700
     29 H5          -5.7690    -1.7140    -1.2420 hc         1 XT5       0.100700
     30 H6          -3.1190     0.2940     1.1360 h4         1 XT5       0.184000
     31 H7          -2.4300     3.4510    -0.9200 h1         1 XT5       0.079700
     32 H8          -2.4620     3.0220     0.7850 h1         1 XT5       0.079700
     33 H9          -0.4650     2.2820     1.7830 ha         1 XT5       0.132000
     34 H10          1.5960     1.6180     2.6040 ho         1 XT5       0.427000
     35 H11         -0.9460     1.8330    -2.4470 ha         1 XT5       0.154000
     36 H12          1.3610     0.9430    -2.5980 ha         1 XT5       0.155000
     37 H13          1.3580    -1.4030    -0.1920 ha         1 XT5       0.139000
     38 H14          2.0610    -3.5860     0.6900 ha         1 XT5       0.130000
     39 H15          4.4420    -3.9850     1.2640 ha         1 XT5       0.133000
     40 H16          6.0880    -2.1770     0.9570 ha         1 XT5       0.131000
     41 H17          5.7770     0.6520    -0.9890 hc         1 XT5       0.044367
     42 H18          5.3800     1.2370     0.6150 hc         1 XT5       0.044367
     43 H19          6.6560     0.0400     0.4070 hc         1 XT5       0.044367
@<TRIPOS>BOND
     1     1     2 1   
     2     1     3 1   
     3     1    25 1   
     4     1    26 1   
     5     2     3 1   
     6     2    27 1   
     7     2    28 1   
     8     3     4 1   
     9     3    29 1   
    10     4     5 2   
    11     4     6 1   
    12     5     8 1   
    13     5    30 1   
    14     6     7 2   
    15     7     8 1   
    16     8     9 1   
    17     9    10 1   
    18     9    31 1   
    19     9    32 1   
    20    10    11 ar  
    21    10    14 ar  
    22    11    12 ar  
    23    11    33 1   
    24    12    13 1   
    25    12    16 ar  
    26    13    34 1   
    27    14    15 ar  
    28    14    35 1   
    29    15    16 ar  
    30    15    36 1   
    31    16    17 1   
    32    17    18 1   
    33    18    19 ar  
    34    18    23 ar  
    35    19    20 ar  
    36    19    37 1   
    37    20    21 ar  
    38    20    38 1   
    39    21    22 ar  
    40    21    39 1   
    41    22    23 ar  
    42    22    40 1   
    43    23    24 1   
    44    24    41 1   
    45    24    42 1   
    46    24    43 1   
@<TRIPOS>SUBSTRUCTURE
     1 XT5         1 TEMP              0 ****  ****    0 ROOT
