@<TRIPOS>MOLECULE
XT5
   43    46     1     0     0
SMALL
No Charge or Current Charge


@<TRIPOS>ATOM
      1 CAK         -6.5560    -1.5640     0.1700 cx         1 XT5      -0.125900
      2 CAL         -5.2710    -2.2530     0.5660 cx         1 XT5      -0.125900
      3 CAW         -5.3040    -1.3560    -0.6540 cx         1 XT5      -0.144000
      4 CAT         -4.6310    -0.0450    -0.6280 cc         1 XT5       0.239300
      5 CAJ         -3.5110     0.3270     0.0500 cd         1 XT5      -0.207000
      6 NAN         -5.1080     1.0130    -1.3490 nc         1 XT5      -0.355000
      7 NAO         -4.3290     2.0470    -1.1520 nd         1 XT5      -0.204800
      8 NAX         -3.3390     1.6470    -0.2950 na         1 XT5       0.122800
      9 CAM         -2.2720     2.5590     0.1480 c3         1 XT5       0.124900
     10 CAR         -0.8600     2.0170    -0.0780 ca         1 XT5      -0.088300
     11 CAI          0.0900     2.0590     0.9630 ca         1 XT5      -0.186000
     12 CAS          1.3900     1.5600     0.7650 ca         1 XT5       0.119100
     13 OAB          2.2940     1.6280     1.7910 oh         1 XT5      -0.511100
     14 CAG         -0.4920     1.4800    -1.3280 ca         1 XT5      -0.108000
     15 CAH          0.8050     0.9800    -1.5330 ca         1 XT5      -0.085000
     16 CAV          1.7440     1.0080    -0.4900 ca         1 XT5       0.083100
     17 OAP          3.0070     0.5060    -0.7220 os         1 XT5      -0.242200
     18 CAU          3.5000    -0.6040    -0.0670 ca         1 XT5       0.133100
     19 CAF          2.6270    -1.5770     0.4670 ca         1 XT5      -0.169000
     20 CAD          3.1440    -2.7080     1.1190 ca         1 XT5      -0.086000
     21 CAC          4.5330    -2.8750     1.2350 ca         1 XT5      -0.133000
     22 CAE          5.4070    -1.9140     0.6980 ca         1 XT5      -0.088000
     23 CAQ          4.8980    -0.7760     0.0420 ca         1 XT5      -0.086300
     24 CAA          5.8530     0.2610    -0.5380 c3         1 XT5      -0.036800
     25 H1          -7.3480    -2.1740    -0.2580 hc         1 XT5       0.071700
     26 H2          -6.9010    -0.7400     0.7910 hc         1 XT5       0.071700
     27 H3          -4.7630    -1.8940     1.4580 hc         1 XT5       0.071700
     28 H4          -5.2000    -3.3260     0.4030 hc         1 XT5       0.071700
     29 H5          -5.2640    -1.8360    -1.6290 hc         1 XT5       0.100700
     30 H6          -2.8540    -0.2200     0.7130 h4         1 XT5       0.166000
     31 H7          -2.3760     3.5110    -0.3870 h1         1 XT5       0.079700
     32 H8          -2.4260     2.7640     1.2150 h1         1 XT5       0.079700
     33 H9          -0.1870     2.4830     1.9260 ha         1 XT5       0.114000
     34 H10          1.8590     2.0460     2.5630 ho         1 XT5       0.466000
     35 H11         -1.2110     1.4500    -2.1460 ha         1 XT5       0.136000
     36 H12          1.0820     0.5640    -2.4990 ha         1 XT5       0.137000
     37 H13          1.5500    -1.4640     0.3760 ha         1 XT5       0.121000
     38 H14          2.4700    -3.4560     1.5310 ha         1 XT5       0.112000
     39 H15          4.9340    -3.7520     1.7400 ha         1 XT5       0.115000
     40 H16          6.4810    -2.0570     0.7920 ha         1 XT5       0.113000
     41 H17          5.7190     0.3550    -1.6220 hc         1 XT5       0.044367
     42 H18          5.6800     1.2470    -0.0910 hc         1 XT5       0.044367
     43 H19          6.9020    -0.0030    -0.3570 hc         1 XT5       0.044367
@<TRIPOS>BOND
     1     1     2 1   
     2     1     3 1   
     3     1    25 1   
     4     1    26 1   
     5     2     3 1   
     6     2    27 1   
     7     2    28 1   
     8     3     4 1   
     9     3    29 1   
    10     4     5 2   
    11     4     6 1   
    12     5     8 1   
    13     5    30 1   
    14     6     7 2   
    15     7     8 1   
    16     8     9 1   
    17     9    10 1   
    18     9    31 1   
    19     9    32 1   
    20    10    11 ar  
    21    10    14 ar  
    22    11    12 ar  
    23    11    33 1   
    24    12    13 1   
    25    12    16 ar  
    26    13    34 1   
    27    14    15 ar  
    28    14    35 1   
    29    15    16 ar  
    30    15    36 1   
    31    16    17 1   
    32    17    18 1   
    33    18    19 ar  
    34    18    23 ar  
    35    19    20 ar  
    36    19    37 1   
    37    20    21 ar  
    38    20    38 1   
    39    21    22 ar  
    40    21    39 1   
    41    22    23 ar  
    42    22    40 1   
    43    23    24 1   
    44    24    41 1   
    45    24    42 1   
    46    24    43 1   
@<TRIPOS>SUBSTRUCTURE
     1 XT5         1 TEMP              0 ****  ****    0 ROOT
