@<TRIPOS>MOLECULE
XT7
   72    76     1     0     0
SMALL
bcc


@<TRIPOS>ATOM
      1 C01          1.2940    11.5800    32.5360 c3         1 XT7      -0.102100
      2 C02          1.1030    11.3080    34.0230 c3         1 XT7       0.162000
      3 N03          1.4580     9.9320    34.3120 ns         1 XT7      -0.573900
      4 C04          1.1190     9.3210    35.4620 c          1 XT7       0.678700
      5 C05          1.7670     7.9890    35.6830 ca         1 XT7      -0.105600
      6 C06          1.0090     6.8670    36.0220 ca         1 XT7      -0.071300
      7 C07         -0.4900     6.8840    36.1230 c3         1 XT7      -0.041800
      8 C08          1.7130     5.6860    36.2560 ca         1 XT7      -0.095000
      9 C09          3.0910     5.6130    36.1800 ca         1 XT7      -0.184000
     10 C10          3.8490     6.7430    35.8490 ca         1 XT7       0.170600
     11 N11          5.2150     6.6640    35.7470 nu         1 XT7      -0.761600
     12 C12          6.0390     7.8360    35.7240 cy         1 XT7       0.185500
     13 C13          6.2140     8.5990    34.3940 cy         1 XT7       0.123300
     14 N14          7.6530     8.6900    34.6750 n6         1 XT7      -0.785200
     15 C15          7.5490     7.5870    35.6410 cy         1 XT7       0.123300
     16 C16          3.1570     7.9310    35.5950 ca         1 XT7      -0.184000
     17 O17          0.3550     9.8150    36.2780 o          1 XT7      -0.588100
     18 C18          1.9110    12.2740    34.8660 ca         1 XT7      -0.097300
     19 C19          3.2930    12.1420    34.9690 ca         1 XT7      -0.118000
     20 C20          4.0220    13.0460    35.7270 ca         1 XT7      -0.129000
     21 C21          3.3870    14.0890    36.3840 ca         1 XT7      -0.111000
     22 C22          2.0000    14.2330    36.3020 ca         1 XT7      -0.003000
     23 C23          1.3250    15.3030    37.0330 cc         1 XT7      -0.020100
     24 C24          1.7240    15.9240    38.1830 cd         1 XT7      -0.144000
     25 C25          0.8130    16.9180    38.6270 cd         1 XT7      -0.156000
     26 C26         -0.2740    17.0500    37.8160 cc         1 XT7      -0.064400
     27 C27         -1.4640    17.9380    37.9830 c3         1 XT7       0.234100
     28 N28         -1.8260    18.6350    36.7640 n7         1 XT7      -0.806200
     29 C29         -1.0340    19.8250    36.5010 c5         1 XT7       0.170500
     30 C30          0.3430    19.5510    35.8680 c5         1 XT7      -0.077400
     31 C31          0.6590    20.7910    35.0050 c5         1 XT7      -0.077400
     32 C32         -0.5610    21.7080    35.1330 c5         1 XT7       0.144100
     33 O33         -0.7490    22.4550    33.9550 oh         1 XT7      -0.589800
     34 C34         -1.6940    20.7510    35.4880 c5         1 XT7      -0.127400
     35 S35         -0.1820    15.9580    36.4880 ss         1 XT7      -0.045800
     36 C36          1.2800    13.3130    35.5340 ca         1 XT7      -0.101000
     37 H1           1.0080    12.6050    32.3050 hc         1 XT7       0.044367
     38 H2           2.3350    11.4460    32.2380 hc         1 XT7       0.044367
     39 H3           0.6750    10.9110    31.9380 hc         1 XT7       0.044367
     40 H4           0.0460    11.4420    34.2640 h1         1 XT7       0.076700
     41 H5           2.0890     9.4620    33.6810 hn         1 XT7       0.315500
     42 H6          -0.9570     7.3990    35.2820 hc         1 XT7       0.046700
     43 H7          -0.8790     5.8670    36.1400 hc         1 XT7       0.046700
     44 H8          -0.8320     7.3810    37.0310 hc         1 XT7       0.046700
     45 H9           1.1600     4.7880    36.5080 ha         1 XT7       0.130000
     46 H10          3.5910     4.6720    36.3790 ha         1 XT7       0.129000
     47 H11          5.6350     5.8520    36.1720 hn         1 XT7       0.420800
     48 H12          5.7930     8.5300    36.5380 h1         1 XT7       0.066700
     49 H13          5.7030     9.5610    34.2910 h1         1 XT7       0.053700
     50 H14          5.9530     7.9660    33.5390 h1         1 XT7       0.053700
     51 H15          8.2530     8.5020    33.8830 hn         1 XT7       0.357800
     52 H17          7.7630     6.5980    35.2200 h1         1 XT7       0.053700
     53 H18          8.1290     7.7110    36.5570 h1         1 XT7       0.053700
     54 H19          3.7030     8.8320    35.3460 ha         1 XT7       0.134000
     55 H20          3.8050    11.3310    34.4630 ha         1 XT7       0.122000
     56 H21          5.0970    12.9440    35.8000 ha         1 XT7       0.132000
     57 H22          3.9730    14.7990    36.9540 ha         1 XT7       0.133000
     58 H23          2.6330    15.6670    38.7090 ha         1 XT7       0.151000
     59 H24          0.9540    17.5120    39.5200 ha         1 XT7       0.147000
     60 H25         -1.2580    18.6170    38.8240 h1         1 XT7       0.041700
     61 H26         -2.3210    17.3290    38.2840 h1         1 XT7       0.041700
     62 H27         -2.7980    18.9080    36.8410 hn         1 XT7       0.360800
     63 H29         -0.8790    20.3980    37.4310 h1         1 XT7       0.019700
     64 H30          0.2700    18.6600    35.2430 hc         1 XT7       0.057700
     65 H31          1.1100    19.3530    36.6170 hc         1 XT7       0.057700
     66 H32          1.5790    21.2940    35.3060 hc         1 XT7       0.055200
     67 H33          0.7820    20.5050    33.9580 hc         1 XT7       0.055200
     68 H34         -0.4090    22.3820    35.9890 h1         1 XT7       0.024700
     69 H35         -1.4630    23.0820    34.1060 ho         1 XT7       0.402000
     70 H36         -2.5810    21.2550    35.8790 hc         1 XT7       0.055700
     71 H37         -1.9870    20.1770    34.6010 hc         1 XT7       0.055700
     72 H38          0.2000    13.3900    35.4740 ha         1 XT7       0.138000
@<TRIPOS>BOND
     1     1     2 1   
     2     1    37 1   
     3     1    38 1   
     4     1    39 1   
     5     2     3 1   
     6     2    18 1   
     7     2    40 1   
     8     3     4 1   
     9     3    41 1   
    10     4     5 1   
    11     4    17 2   
    12     5     6 ar  
    13     5    16 ar  
    14     6     7 1   
    15     6     8 ar  
    16     7    42 1   
    17     7    43 1   
    18     7    44 1   
    19     8     9 ar  
    20     8    45 1   
    21     9    10 ar  
    22     9    46 1   
    23    10    11 1   
    24    10    16 ar  
    25    11    12 1   
    26    11    47 1   
    27    12    13 1   
    28    12    15 1   
    29    12    48 1   
    30    13    14 1   
    31    13    49 1   
    32    13    50 1   
    33    14    15 1   
    34    14    51 1   
    35    15    52 1   
    36    15    53 1   
    37    16    54 1   
    38    18    19 ar  
    39    18    36 ar  
    40    19    20 ar  
    41    19    55 1   
    42    20    21 ar  
    43    20    56 1   
    44    21    22 ar  
    45    21    57 1   
    46    22    23 1   
    47    22    36 ar  
    48    23    24 2   
    49    23    35 1   
    50    24    25 1   
    51    24    58 1   
    52    25    26 2   
    53    25    59 1   
    54    26    27 1   
    55    26    35 1   
    56    27    28 1   
    57    27    60 1   
    58    27    61 1   
    59    28    29 1   
    60    28    62 1   
    61    29    30 1   
    62    29    34 1   
    63    29    63 1   
    64    30    31 1   
    65    30    64 1   
    66    30    65 1   
    67    31    32 1   
    68    31    66 1   
    69    31    67 1   
    70    32    33 1   
    71    32    34 1   
    72    32    68 1   
    73    33    69 1   
    74    34    70 1   
    75    34    71 1   
    76    36    72 1   
@<TRIPOS>SUBSTRUCTURE
     1 XT7         1 TEMP              0 ****  ****    0 ROOT
