@<TRIPOS>MOLECULE
XT7
   72    76     1     0     0
SMALL
No Charge or Current Charge


@<TRIPOS>ATOM
      1 C01          1.3690    11.1560    32.5260 c3         1 XT7      -0.102100
      2 C02          1.2200    11.2480    34.0590 c3         1 XT7       0.162000
      3 N03          1.6750    10.0220    34.7100 ns         1 XT7      -0.506900
      4 C04          0.9700     8.8380    34.7630 c          1 XT7       0.611700
      5 C05          1.6860     7.6750    35.4470 ca         1 XT7      -0.105600
      6 C06          0.9900     6.5420    35.9650 ca         1 XT7      -0.071300
      7 C07         -0.5330     6.4140    35.9200 c3         1 XT7      -0.041800
      8 C08          1.7130     5.4970    36.5740 ca         1 XT7      -0.077000
      9 C09          3.1090     5.5530    36.6820 ca         1 XT7      -0.166000
     10 C10          3.8090     6.6550    36.1820 ca         1 XT7       0.309000
     11 N11          5.2010     6.6800    36.2980 nu         1 XT7      -0.955200
     12 C12          6.1450     7.6990    35.8180 cy         1 XT7       0.185500
     13 C13          6.4240     7.8180    34.2750 cy         1 XT7       0.123300
     14 N14          7.8050     8.2590    34.6710 n6         1 XT7      -0.840400
     15 C15          7.6890     7.4100    35.9050 cy         1 XT7       0.123300
     16 C16          3.1020     7.7040    35.5720 ca         1 XT7      -0.166000
     17 O17         -0.1370     8.7480    34.2510 o          1 XT7      -0.588100
     18 C18          1.9640    12.4480    34.6400 ca         1 XT7      -0.097300
     19 C19          3.3560    12.5860    34.4710 ca         1 XT7      -0.100000
     20 C20          4.0280    13.6910    35.0150 ca         1 XT7      -0.111000
     21 C21          3.3180    14.6650    35.7350 ca         1 XT7      -0.093000
     22 C22          1.9250    14.5410    35.9230 ca         1 XT7      -0.003000
     23 C23          1.1670    15.5510    36.6670 cc         1 XT7      -0.165000
     24 C24          1.7220    16.2680    37.6990 cd         1 XT7      -0.126000
     25 C25          0.8030    17.1810    38.2860 cd         1 XT7      -0.138000
     26 C26         -0.4460    17.1620    37.7070 cc         1 XT7      -0.209300
     27 C27         -1.6460    17.9880    38.0720 c3         1 XT7       0.234100
     28 N28         -1.9650    18.9870    37.0310 n7         1 XT7      -0.861400
     29 C29         -0.9620    20.0550    36.8050 c5         1 XT7       0.170500
     30 C30          0.0840    19.6040    35.7400 c5         1 XT7      -0.077400
     31 C31          0.4400    20.9170    34.9650 c5         1 XT7      -0.077400
     32 C32         -0.4280    22.0200    35.6380 c5         1 XT7       0.167300
     33 O33         -0.7580    23.0700    34.7330 oh         1 XT7      -0.652000
     34 C34         -1.6710    21.2120    36.0690 c5         1 XT7      -0.127400
     35 S35         -0.5280    15.9620    36.4160 ss         1 XT7       0.244000
     36 C36          1.2590    13.4290    35.3670 ca         1 XT7      -0.083000
     37 H1           1.0430    12.0910    32.0560 hc         1 XT7       0.044367
     38 H2           2.4100    10.9710    32.2380 hc         1 XT7       0.044367
     39 H3           0.7540    10.3430    32.1230 hc         1 XT7       0.044367
     40 H4           0.1500    11.3670    34.2800 h1         1 XT7       0.076700
     41 H5           2.5680    10.0400    35.1840 hn         1 XT7       0.315500
     42 H6          -0.8870     6.2620    34.8940 hc         1 XT7       0.046700
     43 H7          -0.8890     5.5630    36.5130 hc         1 XT7       0.046700
     44 H8          -1.0200     7.3090    36.3250 hc         1 XT7       0.046700
     45 H9           1.1890     4.6310    36.9740 ha         1 XT7       0.112000
     46 H10          3.6440     4.7350    37.1570 ha         1 XT7       0.111000
     47 H11          5.6000     5.8650    36.7670 hn         1 XT7       0.476000
     48 H12          5.8790     8.6610    36.2740 h1         1 XT7       0.066700
     49 H13          5.8040     8.5560    33.7520 h1         1 XT7       0.053700
     50 H14          6.3720     6.8530    33.7540 h1         1 XT7       0.053700
     51 H15          8.5800     8.0440    34.0290 hn         1 XT7       0.413000
     52 H17          7.9380     6.3500    35.7660 h1         1 XT7       0.053700
     53 H18          8.1760     7.7900    36.8110 h1         1 XT7       0.053700
     54 H19          3.6680     8.5380    35.1730 ha         1 XT7       0.116000
     55 H20          3.9200    11.8370    33.9190 ha         1 XT7       0.104000
     56 H21          5.1020    13.7960    34.8750 ha         1 XT7       0.114000
     57 H22          3.8540    15.5220    36.1340 ha         1 XT7       0.115000
     58 H23          2.7440    16.1550    38.0440 ha         1 XT7       0.133000
     59 H24          1.0640    17.8370    39.1110 ha         1 XT7       0.129000
     60 H25         -1.4640    18.4840    39.0360 h1         1 XT7       0.041700
     61 H26         -2.5000    17.3110    38.2140 h1         1 XT7       0.041700
     62 H27         -2.8400    19.4360    37.3230 hn         1 XT7       0.416000
     63 H29         -0.4980    20.4000    37.7400 h1         1 XT7       0.019700
     64 H30         -0.3290    18.8570    35.0520 hc         1 XT7       0.057700
     65 H31          0.9680    19.1560    36.2060 hc         1 XT7       0.057700
     66 H32          1.5080    21.1550    35.0250 hc         1 XT7       0.055200
     67 H33          0.1980    20.8100    33.9010 hc         1 XT7       0.055200
     68 H34          0.0870    22.4290    36.5190 h1         1 XT7       0.024700
     69 H35         -1.3390    23.6920    35.2240 ho         1 XT7       0.441000
     70 H36         -2.3330    21.7840    36.7280 hc         1 XT7       0.055700
     71 H37         -2.2600    20.8700    35.2080 hc         1 XT7       0.055700
     72 H38          0.1870    13.3200    35.5090 ha         1 XT7       0.120000
@<TRIPOS>BOND
     1     1     2 1   
     2     1    37 1   
     3     1    38 1   
     4     1    39 1   
     5     2     3 1   
     6     2    18 1   
     7     2    40 1   
     8     3     4 1   
     9     3    41 1   
    10     4     5 1   
    11     4    17 2   
    12     5     6 ar  
    13     5    16 ar  
    14     6     7 1   
    15     6     8 ar  
    16     7    42 1   
    17     7    43 1   
    18     7    44 1   
    19     8     9 ar  
    20     8    45 1   
    21     9    10 ar  
    22     9    46 1   
    23    10    11 1   
    24    10    16 ar  
    25    11    12 1   
    26    11    47 1   
    27    12    13 1   
    28    12    15 1   
    29    12    48 1   
    30    13    14 1   
    31    13    49 1   
    32    13    50 1   
    33    14    15 1   
    34    14    51 1   
    35    15    52 1   
    36    15    53 1   
    37    16    54 1   
    38    18    19 ar  
    39    18    36 ar  
    40    19    20 ar  
    41    19    55 1   
    42    20    21 ar  
    43    20    56 1   
    44    21    22 ar  
    45    21    57 1   
    46    22    23 1   
    47    22    36 ar  
    48    23    24 2   
    49    23    35 1   
    50    24    25 1   
    51    24    58 1   
    52    25    26 2   
    53    25    59 1   
    54    26    27 1   
    55    26    35 1   
    56    27    28 1   
    57    27    60 1   
    58    27    61 1   
    59    28    29 1   
    60    28    62 1   
    61    29    30 1   
    62    29    34 1   
    63    29    63 1   
    64    30    31 1   
    65    30    64 1   
    66    30    65 1   
    67    31    32 1   
    68    31    66 1   
    69    31    67 1   
    70    32    33 1   
    71    32    34 1   
    72    32    68 1   
    73    33    69 1   
    74    34    70 1   
    75    34    71 1   
    76    36    72 1   
@<TRIPOS>SUBSTRUCTURE
     1 XT7         1 TEMP              0 ****  ****    0 ROOT
