@<TRIPOS>MOLECULE
XT8
   41    42     1     0     0
SMALL
bcc


@<TRIPOS>ATOM
      1 C7           0.6560    -0.5980    -1.8580 c          1 XT8       0.580900
      2 O8          -0.2350    -1.3600    -2.1300 o          1 XT8      -0.532100
      3 C6           0.5840     0.4480    -0.7700 c3         1 XT8       0.000700
      4 C5           1.8950     0.5260     0.0170 c5         1 XT8       0.308600
      5 S1           2.4130    -1.1810     0.5590 ss         1 XT8      -0.464200
      6 C2           4.1490    -0.9410     0.0060 c5         1 XT8       0.055100
      7 C10          5.1000    -1.4920     1.0610 c3         1 XT8      -0.064600
      8 C9           4.3720    -1.6770    -1.3130 c3         1 XT8      -0.064600
      9 C3           4.2590     0.6020    -0.2200 c5         1 XT8       0.035500
     10 C11          4.7240     1.3620     1.0400 c          1 XT8       0.944600
     11 O12          3.8530     1.7380     1.8470 o          1 XT8      -0.824800
     12 O13          5.9550     1.5270     1.1420 o          1 XT8      -0.824800
     13 N4           2.9840     1.0870    -0.7250 n7         1 XT8      -0.759200
     14 N14         -0.5360     0.2000     0.0840 ns         1 XT8      -0.566900
     15 C15         -1.3240     1.1680     0.5690 c          1 XT8       0.686100
     16 O16         -1.1500     2.3610     0.3530 o          1 XT8      -0.669100
     17 C17         -2.5170     0.6840     1.3810 c3         1 XT8      -0.229400
     18 C33         -2.3190    -0.6090     2.2260 c          1 XT8       0.947600
     19 O33         -2.7920    -0.5900     3.3680 o          1 XT8      -0.811800
     20 O32         -1.7450    -1.5690     1.6630 o          1 XT8      -0.811800
     21 C28         -3.6870     0.4520     0.4600 cc         1 XT8      -0.041300
     22 C32         -3.6280    -0.1700    -0.7540 cd         1 XT8      -0.082100
     23 S31         -5.1760    -0.3010    -1.4790 ss         1 XT8      -0.213800
     24 C30         -5.9310     0.4760    -0.1520 cd         1 XT8      -0.151100
     25 C29         -5.0230     0.8200     0.8010 cc         1 XT8      -0.116000
     26 H1           1.5900    -0.5980    -2.4440 h4         1 XT8      -0.035800
     27 H2           0.4450     1.4160    -1.2710 h1         1 XT8       0.090700
     28 H3           1.7240     1.1030     0.9210 h2         1 XT8       0.149700
     29 H4           5.0030    -2.5760     1.1340 hc         1 XT8       0.028033
     30 H5           6.1340    -1.2690     0.7930 hc         1 XT8       0.028033
     31 H6           4.9040    -1.0710     2.0450 hc         1 XT8       0.028033
     32 H7           3.7520    -1.2800    -2.1190 hc         1 XT8       0.028033
     33 H8           5.4150    -1.5850    -1.6250 hc         1 XT8       0.028033
     34 H9           4.1420    -2.7390    -1.2160 hc         1 XT8       0.028033
     35 H10          5.0060     0.7670    -1.0010 h1         1 XT8       0.043700
     36 H12          2.9120     0.8550    -1.7080 hn         1 XT8       0.312800
     37 H14         -0.7670    -0.7450     0.4100 hn         1 XT8       0.394500
     38 H15         -2.7760     1.5020     2.0560 hc         1 XT8       0.073700
     39 H17         -2.7580    -0.5570    -1.2630 h4         1 XT8       0.190000
     40 H18         -6.9970     0.6410    -0.1450 h4         1 XT8       0.138000
     41 H19         -5.2870     1.3230     1.7210 ha         1 XT8       0.147000
@<TRIPOS>BOND
     1     1     2 2   
     2     1     3 1   
     3     1    26 1   
     4     3     4 1   
     5     3    14 1   
     6     3    27 1   
     7     4     5 1   
     8     4    13 1   
     9     4    28 1   
    10     5     6 1   
    11     6     7 1   
    12     6     8 1   
    13     6     9 1   
    14     7    29 1   
    15     7    30 1   
    16     7    31 1   
    17     8    32 1   
    18     8    33 1   
    19     8    34 1   
    20     9    10 1   
    21     9    13 1   
    22     9    35 1   
    23    10    11 1   
    24    10    12 1   
    25    13    36 1   
    26    14    15 1   
    27    14    37 1   
    28    15    16 2   
    29    15    17 1   
    30    17    18 1   
    31    17    21 1   
    32    17    38 1   
    33    18    19 1   
    34    18    20 1   
    35    21    22 2   
    36    21    25 1   
    37    22    23 1   
    38    22    39 1   
    39    23    24 1   
    40    24    25 2   
    41    24    40 1   
    42    25    41 1   
@<TRIPOS>SUBSTRUCTURE
     1 XT8         1 TEMP              0 ****  ****    0 ROOT
