@<TRIPOS>MOLECULE
XT8
   41    42     1     0     0
SMALL
No Charge or Current Charge


@<TRIPOS>ATOM
      1 C7           0.3810    -0.4450    -2.5310 c          1 XT8       0.580900
      2 O8          -0.5110    -1.2650    -2.7400 o          1 XT8      -0.532100
      3 C6           0.4580     0.4400    -1.2690 c3         1 XT8       0.000700
      4 C5           1.8490     0.3440    -0.5810 c5         1 XT8       0.356500
      5 S1           2.2870    -1.3890    -0.1450 ss         1 XT8      -0.560000
      6 C2           4.0640    -0.9100     0.1280 c5         1 XT8       0.103000
      7 C10          4.3150    -0.8780     1.6600 c3         1 XT8      -0.064600
      8 C9           4.9480    -2.0210    -0.4920 c3         1 XT8      -0.064600
      9 C3           4.2350     0.4640    -0.6420 c5         1 XT8       0.035500
     10 C11          4.6550     1.6440     0.3420 c          1 XT8       0.734000
     11 O12          3.7990     2.3320     0.8870 o          1 XT8      -0.719500
     12 O13          5.8450     1.9170     0.4450 o          1 XT8      -0.719500
     13 N4           2.9810     0.6500    -1.4750 n7         1 XT8      -0.814400
     14 N14         -0.6970     0.1570    -0.3720 ns         1 XT8      -0.499900
     15 C15         -1.0260     0.8630     0.7590 c          1 XT8       0.619100
     16 O16         -0.3680     1.8260     1.1260 o          1 XT8      -0.669100
     17 C17         -2.2730     0.4020     1.4930 c3         1 XT8      -0.229400
     18 C33         -2.0280    -1.0190     1.9840 c          1 XT8       0.737000
     19 O33         -1.9360    -1.2020     3.1880 o          1 XT8      -0.706500
     20 O32         -1.9950    -1.9190     1.1580 o          1 XT8      -0.706500
     21 C28         -3.5680     0.5880     0.7280 cc         1 XT8      -0.041300
     22 C32         -3.7370     1.2590    -0.4600 cd         1 XT8      -0.209000
     23 S31         -5.4230     1.2510    -1.0010 ss         1 XT8       0.076000
     24 C30         -5.8860     0.3340     0.4360 cd         1 XT8      -0.278000
     25 C29         -4.7970     0.0770     1.2260 cc         1 XT8      -0.098000
     26 H1           1.1890    -0.2910    -3.2800 h4         1 XT8      -0.035800
     27 H2           0.3550     1.4730    -1.6240 h1         1 XT8       0.090700
     28 H3           1.8520     0.9760     0.3210 h2         1 XT8       0.149700
     29 H4           4.1380    -1.8630     2.1100 hc         1 XT8       0.028033
     30 H5           5.3490    -0.5950     1.8920 hc         1 XT8       0.028033
     31 H6           3.6470    -0.1700     2.1650 hc         1 XT8       0.028033
     32 H7           4.7570    -2.1270    -1.5660 hc         1 XT8       0.028033
     33 H8           6.0140    -1.7940    -0.3660 hc         1 XT8       0.028033
     34 H9           4.7570    -2.9940    -0.0240 hc         1 XT8       0.028033
     35 H10          5.0800     0.3820    -1.3380 h1         1 XT8       0.043700
     36 H12          2.9860    -0.0650    -2.2050 hn         1 XT8       0.368000
     37 H14         -1.2710    -0.6630    -0.5580 hn         1 XT8       0.394500
     38 H15         -2.3380     1.0390     2.3820 hc         1 XT8       0.073700
     39 H17         -2.9870     1.7630    -1.0590 h4         1 XT8       0.172000
     40 H18         -6.9180     0.0510     0.6020 h4         1 XT8       0.120000
     41 H19         -4.8560    -0.4710     2.1620 ha         1 XT8       0.129000
@<TRIPOS>BOND
     1     1     2 2   
     2     1     3 1   
     3     1    26 1   
     4     3     4 1   
     5     3    14 1   
     6     3    27 1   
     7     4     5 1   
     8     4    13 1   
     9     4    28 1   
    10     5     6 1   
    11     6     7 1   
    12     6     8 1   
    13     6     9 1   
    14     7    29 1   
    15     7    30 1   
    16     7    31 1   
    17     8    32 1   
    18     8    33 1   
    19     8    34 1   
    20     9    10 1   
    21     9    13 1   
    22     9    35 1   
    23    10    11 1   
    24    10    12 1   
    25    13    36 1   
    26    14    15 1   
    27    14    37 1   
    28    15    16 2   
    29    15    17 1   
    30    17    18 1   
    31    17    21 1   
    32    17    38 1   
    33    18    19 1   
    34    18    20 1   
    35    21    22 2   
    36    21    25 1   
    37    22    23 1   
    38    22    39 1   
    39    23    24 1   
    40    24    25 2   
    41    24    40 1   
    42    25    41 1   
@<TRIPOS>SUBSTRUCTURE
     1 XT8         1 TEMP              0 ****  ****    0 ROOT
