@<TRIPOS>MOLECULE
XTA
   70    74     1     0     0
SMALL
bcc


@<TRIPOS>ATOM
      1 C10        -67.1510   -34.3770    99.6780 ca         1 XTA       0.489200
      2 C11        -66.8590   -35.6990    99.3950 ca         1 XTA      -0.191500
      3 C13        -64.7290   -36.1570    98.5400 ca         1 XTA       0.636600
      4 C14        -63.4470   -36.6550    98.7750 ca         1 XTA      -0.257300
      5 C15        -62.5400   -36.5990    97.7370 ca         1 XTA      -0.005300
      6 C16        -61.1230   -37.0670    97.9210 c3         1 XTA       0.205100
      7 C18        -59.2650   -38.1750    96.9090 c6         1 XTA       0.164800
      8 C19        -58.8090   -39.0780    95.7760 c6         1 XTA      -0.072400
      9 C20        -59.5060   -40.4340    95.8280 c6         1 XTA      -0.039700
     10 C21        -59.0800   -41.3340    94.6750 c3         1 XTA      -0.201400
     11 C22        -59.6710   -42.7580    94.7110 c          1 XTA       0.925600
     12 C25        -61.0120   -40.1980    95.8590 c6         1 XTA      -0.072400
     13 C26        -61.4070   -39.2540    96.9830 c6         1 XTA       0.164800
     14 C27        -62.9530   -36.0620    96.5140 ca         1 XTA      -0.229300
     15 C28        -64.2520   -35.6030    96.3860 cp         1 XTA       0.488800
     16 C30        -64.7630   -34.9950    95.1370 cp         1 XTA      -0.119500
     17 C31        -65.8910   -34.1760    95.1900 ca         1 XTA      -0.094000
     18 C32        -66.3650   -33.5890    94.0320 ca         1 XTA       0.024400
     19 C34        -65.7560   -33.7940    92.8040 ca         1 XTA      -0.115000
     20 C03        -72.9390   -34.7800    99.2820 c6         1 XTA       0.145300
     21 C04        -71.6790   -34.9920    98.4630 c6         1 XTA       0.226800
     22 C06        -70.8880   -32.8180    99.1920 c6         1 XTA       0.226800
     23 C07        -72.1650   -32.6520    99.9960 c6         1 XTA       0.145300
     24 C08        -69.3300   -34.7170    99.1340 ca         1 XTA       0.919900
     25 C35        -64.6440   -34.6200    92.7690 ca         1 XTA       0.024400
     26 C37        -64.1410   -35.2220    93.9100 ca         1 XTA      -0.094000
     27 C38        -67.9120   -36.4850    98.9660 ca         1 XTA       0.489200
     28 N02        -73.2630   -33.3710    99.3830 n3         1 XTA      -0.712600
     29 N05        -70.5840   -34.2230    99.0180 nh         1 XTA      -0.775300
     30 N09        -68.3670   -33.8840    99.5520 nb         1 XTA      -0.773500
     31 N17        -60.7060   -37.9830    96.8830 n3         1 XTA      -0.717600
     32 N29        -65.1230   -35.6550    97.4010 nb         1 XTA      -0.752000
     33 N39        -69.1350   -36.0090    98.8360 nb         1 XTA      -0.773500
     34 O12        -65.6000   -36.2130    99.5730 os         1 XTA      -0.350400
     35 O23        -59.7010   -43.3220    95.8250 o          1 XTA      -0.844800
     36 O24        -60.0440   -43.2440    93.6230 o          1 XTA      -0.844800
     37 CL3        -67.7560   -32.5650    94.1150 cl         1 XTA      -0.107400
     38 CL6        -63.8660   -34.9080    91.2510 cl         1 XTA      -0.107400
     39 H51        -66.3740   -33.6990   100.0190 h4         1 XTA       0.032100
     40 H52        -63.1790   -37.0670    99.7390 ha         1 XTA       0.157000
     41 H53        -61.0080   -37.4940    98.9310 h1         1 XTA       0.035700
     42 H54        -60.4720   -36.1870    97.8840 h1         1 XTA       0.035700
     43 H55        -58.9410   -38.6110    97.8710 h1         1 XTA       0.020450
     44 H56        -58.7830   -37.1980    96.8270 h1         1 XTA       0.020450
     45 H57        -57.7240   -39.2010    95.8300 hc         1 XTA       0.047450
     46 H58        -59.0280   -38.5920    94.8190 hc         1 XTA       0.047450
     47 H59        -59.2210   -40.9200    96.7680 hc         1 XTA       0.056700
     48 H60        -57.9870   -41.4280    94.6970 hc         1 XTA       0.018200
     49 H61        -59.3220   -40.8500    93.7240 hc         1 XTA       0.018200
     50 H64        -61.3320   -39.7720    94.9010 hc         1 XTA       0.047450
     51 H63        -61.5470   -41.1410    95.9870 hc         1 XTA       0.047450
     52 H66        -62.4840   -39.0710    96.9470 h1         1 XTA       0.020450
     53 H65        -61.2010   -39.7370    97.9550 h1         1 XTA       0.020450
     54 H67        -62.2480   -35.9960    95.6980 ha         1 XTA       0.165000
     55 H68        -66.3850   -33.9990    96.1350 ha         1 XTA       0.166500
     56 H69        -66.1360   -33.3300    91.9050 ha         1 XTA       0.157000
     57 H42        -74.7440   -32.1010   100.1290 h1         1 XTA       0.029700
     58 H40        -75.3160   -33.6850    99.6030 h1         1 XTA       0.029700
     59 H41        -74.4580   -33.5240   101.1440 h1         1 XTA       0.029700
     60 H43        -73.7640   -35.3050    98.7960 h1         1 XTA       0.039200
     61 H44        -72.8030   -35.2380   100.2780 h1         1 XTA       0.039200
     62 H45        -71.8580   -34.6800    97.4270 h1         1 XTA       0.066200
     63 H46        -71.4210   -36.0470    98.4530 h1         1 XTA       0.066200
     64 H48        -70.0670   -32.3220    99.7010 h1         1 XTA       0.066200
     65 H47        -71.0090   -32.3440    98.2110 h1         1 XTA       0.066200
     66 H50        -71.9860   -32.9890   101.0330 h1         1 XTA       0.039200
     67 H49        -72.4120   -31.5890   100.0410 h1         1 XTA       0.039200
     68 H70        -63.2830   -35.8740    93.8320 ha         1 XTA       0.166500
     69 H71        -67.7610   -37.5330    98.7240 h4         1 XTA       0.032100
     70 C01        -74.4990   -33.1640   100.1040 c3         1 XTA       0.151100
@<TRIPOS>BOND
     1     1     2 ar  
     2     1    30 ar  
     3     1    39 1   
     4     2    27 ar  
     5     2    34 1   
     6     3     4 ar  
     7     3    32 ar  
     8     3    34 1   
     9     4     5 ar  
    10     4    40 1   
    11     5     6 1   
    12     5    14 ar  
    13     6    31 1   
    14     6    41 1   
    15     6    42 1   
    16     7     8 1   
    17     7    31 1   
    18     7    43 1   
    19     7    44 1   
    20     8     9 1   
    21     8    45 1   
    22     8    46 1   
    23     9    10 1   
    24     9    12 1   
    25     9    47 1   
    26    10    11 1   
    27    10    48 1   
    28    10    49 1   
    29    11    35 1   
    30    11    36 1   
    31    12    13 1   
    32    12    50 1   
    33    12    51 1   
    34    13    31 1   
    35    13    52 1   
    36    13    53 1   
    37    14    15 ar  
    38    14    54 1   
    39    15    16 1   
    40    15    32 ar  
    41    16    17 ar  
    42    16    26 ar  
    43    17    18 ar  
    44    17    55 1   
    45    18    19 ar  
    46    18    37 1   
    47    19    25 ar  
    48    19    56 1   
    49    20    21 1   
    50    20    28 1   
    51    20    60 1   
    52    20    61 1   
    53    21    29 1   
    54    21    62 1   
    55    21    63 1   
    56    22    23 1   
    57    22    29 1   
    58    22    64 1   
    59    22    65 1   
    60    23    28 1   
    61    23    66 1   
    62    23    67 1   
    63    24    29 1   
    64    24    30 ar  
    65    24    33 ar  
    66    25    26 ar  
    67    25    38 1   
    68    26    68 1   
    69    27    33 ar  
    70    27    69 1   
    71    28    70 1   
    72    57    70 1   
    73    58    70 1   
    74    59    70 1   
@<TRIPOS>SUBSTRUCTURE
     1 XTA         1 TEMP              0 ****  ****    0 ROOT
