@<TRIPOS>MOLECULE
XTA
   70    74     1     0     0
SMALL
No Charge or Current Charge


@<TRIPOS>ATOM
      1 C10        -67.3200   -34.9960    99.1200 ca         1 XTA       0.160900
      2 C11        -67.2560   -36.4030    99.1850 ca         1 XTA      -0.060900
      3 C13        -65.0500   -36.7630    98.2220 ca         1 XTA       0.571300
      4 C14        -63.7420   -37.1340    98.5590 ca         1 XTA      -0.174000
      5 C15        -62.6890   -36.8200    97.6860 ca         1 XTA      -0.005300
      6 C16        -61.2450   -37.1950    98.0100 c3         1 XTA       0.205100
      7 C18        -59.1400   -38.1860    97.2000 c6         1 XTA       0.164800
      8 C19        -58.4520   -38.9350    96.0340 c6         1 XTA      -0.072400
      9 C20        -59.1130   -40.3150    95.7780 c6         1 XTA      -0.039700
     10 C21        -58.4280   -41.0630    94.5880 c3         1 XTA      -0.201400
     11 C22        -58.9250   -42.5150    94.4360 c          1 XTA       0.715000
     12 C25        -60.6400   -40.1170    95.5780 c6         1 XTA      -0.072400
     13 C26        -61.2670   -39.3310    96.7550 c6         1 XTA       0.164800
     14 C27        -63.0100   -36.1470    96.4960 ca         1 XTA      -0.146000
     15 C28        -64.3570   -35.8210    96.2060 cp         1 XTA       0.423500
     16 C30        -64.7650   -35.1010    94.9470 cp         1 XTA      -0.119500
     17 C31        -65.9870   -34.3730    94.8780 ca         1 XTA      -0.076000
     18 C32        -66.3710   -33.7000    93.7070 ca         1 XTA       0.116000
     19 C34        -65.5530   -33.7360    92.5700 ca         1 XTA      -0.097000
     20 C03        -73.3490   -34.3430   100.0580 c6         1 XTA       0.145300
     21 C04        -72.1610   -35.1300    99.4160 c6         1 XTA       0.226800
     22 C06        -70.9610   -32.9410    99.1070 c6         1 XTA       0.226800
     23 C07        -72.1870   -32.2230    99.7590 c6         1 XTA       0.145300
     24 C08        -69.6070   -35.0870    99.3890 ca         1 XTA       0.393900
     25 C35        -64.3470   -34.4500    92.6070 ca         1 XTA       0.116000
     26 C37        -63.9570   -35.1250    93.7760 ca         1 XTA      -0.076000
     27 C38        -68.4670   -37.0900    99.3800 ca         1 XTA       0.160900
     28 N02        -73.4730   -32.9480    99.5420 n3         1 XTA      -0.712600
     29 N05        -70.8460   -34.3950    99.4910 nh         1 XTA      -0.775300
     30 N09        -68.4930   -34.3400    99.2190 nb         1 XTA      -0.247500
     31 N17        -60.5970   -38.0160    96.9590 n3         1 XTA      -0.717600
     32 N29        -65.3490   -36.1310    97.0680 nb         1 XTA      -0.752000
     33 N39        -69.6410   -36.4350    99.4780 nb         1 XTA      -0.247500
     34 O12        -66.0620   -37.0980    99.0970 os         1 XTA      -0.350400
     35 O23        -58.3860   -43.3800    95.1100 o          1 XTA      -0.739500
     36 O24        -59.8520   -42.7350    93.6720 o          1 XTA      -0.739500
     37 Cl3        -67.8870   -32.8080    93.6670 cl         1 XTA      -0.199000
     38 Cl6        -63.3210   -34.5080    91.1800 cl         1 XTA      -0.199000
     39 H51        -66.4280   -34.3850    98.9940 h4         1 XTA       0.032100
     40 H52        -63.5580   -37.6560    99.4930 ha         1 XTA       0.139000
     41 H53        -61.2160   -37.7280    98.9710 h1         1 XTA       0.035700
     42 H54        -60.6830   -36.2610    98.1480 h1         1 XTA       0.035700
     43 H55        -58.9740   -38.7440    98.1340 h1         1 XTA       0.020450
     44 H56        -58.6590   -37.2040    97.3190 h1         1 XTA       0.020450
     45 H57        -57.3850   -39.0620    96.2630 hc         1 XTA       0.047450
     46 H58        -58.5050   -38.3190    95.1250 hc         1 XTA       0.047450
     47 H59        -58.9580   -40.9390    96.6710 hc         1 XTA       0.056700
     48 H60        -57.3580   -41.0810    94.8280 hc         1 XTA       0.018200
     49 H61        -58.6520   -40.4920    93.6790 hc         1 XTA       0.018200
     50 H64        -60.8300   -39.5780    94.6400 hc         1 XTA       0.047450
     51 H63        -61.1450   -41.0880    95.4910 hc         1 XTA       0.047450
     52 H66        -62.3370   -39.1910    96.5440 h1         1 XTA       0.020450
     53 H65        -61.1950   -39.9370    97.6700 h1         1 XTA       0.020450
     54 H67        -62.2160   -35.8780    95.8090 ha         1 XTA       0.147000
     55 H68        -66.6430   -34.3220    95.7430 ha         1 XTA       0.148500
     56 H69        -65.8520   -33.2160    91.6650 ha         1 XTA       0.139000
     57 H42        -74.7190   -31.2260    99.6780 h1         1 XTA       0.029700
     58 H40        -75.5660   -32.7720    99.8960 h1         1 XTA       0.029700
     59 H41        -74.5380   -32.1300   101.2010 h1         1 XTA       0.029700
     60 H43        -74.2770   -34.9020    99.8700 h1         1 XTA       0.039200
     61 H44        -73.2030   -34.3270   101.1490 h1         1 XTA       0.039200
     62 H45        -72.4080   -35.3370    98.3640 h1         1 XTA       0.066200
     63 H46        -72.1050   -36.1010    99.9300 h1         1 XTA       0.066200
     64 H48        -70.0650   -32.3770    99.4050 h1         1 XTA       0.066200
     65 H47        -71.0470   -32.8540    98.0140 h1         1 XTA       0.066200
     66 H50        -71.9930   -32.1190   100.8370 h1         1 XTA       0.039200
     67 H49        -72.2510   -31.2050    99.3480 h1         1 XTA       0.039200
     68 H70        -63.0250   -35.6830    93.7580 ha         1 XTA       0.148500
     69 H71        -68.4990   -38.1760    99.4530 h4         1 XTA       0.032100
     70 C01        -74.6340   -32.2310   100.1110 c3         1 XTA       0.151100
@<TRIPOS>BOND
     1     1     2 ar  
     2     1    30 ar  
     3     1    39 1   
     4     2    27 ar  
     5     2    34 1   
     6     3     4 ar  
     7     3    32 ar  
     8     3    34 1   
     9     4     5 ar  
    10     4    40 1   
    11     5     6 1   
    12     5    14 ar  
    13     6    31 1   
    14     6    41 1   
    15     6    42 1   
    16     7     8 1   
    17     7    31 1   
    18     7    43 1   
    19     7    44 1   
    20     8     9 1   
    21     8    45 1   
    22     8    46 1   
    23     9    10 1   
    24     9    12 1   
    25     9    47 1   
    26    10    11 1   
    27    10    48 1   
    28    10    49 1   
    29    11    35 1   
    30    11    36 1   
    31    12    13 1   
    32    12    50 1   
    33    12    51 1   
    34    13    31 1   
    35    13    52 1   
    36    13    53 1   
    37    14    15 ar  
    38    14    54 1   
    39    15    16 1   
    40    15    32 ar  
    41    16    17 ar  
    42    16    26 ar  
    43    17    18 ar  
    44    17    55 1   
    45    18    19 ar  
    46    18    37 1   
    47    19    25 ar  
    48    19    56 1   
    49    20    21 1   
    50    20    28 1   
    51    20    60 1   
    52    20    61 1   
    53    21    29 1   
    54    21    62 1   
    55    21    63 1   
    56    22    23 1   
    57    22    29 1   
    58    22    64 1   
    59    22    65 1   
    60    23    28 1   
    61    23    66 1   
    62    23    67 1   
    63    24    29 1   
    64    24    30 ar  
    65    24    33 ar  
    66    25    26 ar  
    67    25    38 1   
    68    26    68 1   
    69    27    33 ar  
    70    27    69 1   
    71    28    70 1   
    72    57    70 1   
    73    58    70 1   
    74    59    70 1   
@<TRIPOS>SUBSTRUCTURE
     1 XTA         1 TEMP              0 ****  ****    0 ROOT
