@<TRIPOS>MOLECULE
XTC
   54    57     1     0     0
SMALL
bcc


@<TRIPOS>ATOM
      1 O92          7.7140     0.4300     0.7940 o          1 XTC      -0.204500
      2 N9           6.8900     0.0670    -0.0170 no         1 XTC       0.327200
      3 O91          7.1630    -0.2800    -1.1420 o          1 XTC      -0.204500
      4 C9           5.5090     0.0280     0.4040 ca         1 XTC      -0.264200
      5 C8           5.2490    -0.1220     1.7590 ca         1 XTC       0.013000
      6 C7           3.9530    -0.1790     2.2270 ca         1 XTC      -0.211000
      7 C10          4.4610     0.1580    -0.5230 ca         1 XTC       0.294100
      8 O10          4.7070     0.3820    -1.7950 oh         1 XTC      -0.464100
      9 C1A          3.1360     0.0760    -0.0270 ca         1 XTC      -0.300600
     10 C61          2.8880    -0.0820     1.3410 ca         1 XTC       0.066700
     11 C6           1.4760    -0.1000     1.8410 c6         1 XTC      -0.046100
     12 C11          2.0130     0.1840    -0.9630 c          1 XTC       0.637900
     13 O11          2.2210     0.5660    -2.1410 o          1 XTC      -0.647100
     14 C1B          0.6960    -0.1590    -0.5050 ce         1 XTC      -0.380400
     15 C51          0.5440    -0.7860     0.8540 c6         1 XTC       0.021500
     16 C5          -0.9000    -0.7660     1.3240 c6         1 XTC      -0.078400
     17 C12         -0.3640     0.0150    -1.3470 c2         1 XTC       0.231900
     18 O12         -0.2570     0.4590    -2.5750 oh         1 XTC      -0.480100
     19 C1C         -1.7970    -0.2780    -0.9410 c6         1 XTC       0.111000
     20 O1C         -2.5110    -0.8270    -2.0140 oh         1 XTC      -0.561800
     21 C1          -2.4730     1.0480    -0.5360 c          1 XTC       0.577300
     22 O1          -2.0240     2.1110    -0.9130 o          1 XTC      -0.492100
     23 C41         -1.8420    -1.2550     0.2260 c6         1 XTC      -0.047700
     24 C4          -3.2660    -1.4790     0.7590 c6         1 XTC       0.251700
     25 N4          -4.0010    -2.5190     0.0450 n3         1 XTC      -0.743600
     26 C43         -4.3180    -3.6650     0.8680 c3         1 XTC       0.171100
     27 C42         -5.1120    -2.1430    -0.8020 c3         1 XTC       0.171100
     28 C3          -4.0370    -0.1970     0.8900 c2         1 XTC       0.203900
     29 O3          -5.1060    -0.3410     1.6520 oh         1 XTC      -0.484100
     30 C2          -3.6810     0.9600     0.2690 ce         1 XTC      -0.416400
     31 C21         -4.5430     2.1790     0.3290 c          1 XTC       0.681300
     32 O21         -4.8840     2.7750    -0.6730 o          1 XTC      -0.544100
     33 N21         -4.9910     2.4960     1.5730 nt         1 XTC      -0.680000
     34 H8           6.0700    -0.2070     2.4560 ha         1 XTC       0.169000
     35 H7           3.7700    -0.3040     3.2850 ha         1 XTC       0.149000
     36 H10          3.8350     0.5480    -2.2390 ho         1 XTC       0.494000
     37 H61C         1.4370    -0.5970     2.8110 hc         1 XTC       0.066200
     38 H62C         1.1480     0.9340     2.0010 hc         1 XTC       0.066200
     39 H51          0.8570    -1.8360     0.7790 hc         1 XTC       0.060700
     40 H51C        -0.9940    -1.4160     2.1970 hc         1 XTC       0.050700
     41 H52C        -1.1690     0.2420     1.6600 hc         1 XTC       0.050700
     42 H41         -1.4860    -2.2290    -0.1240 hc         1 XTC       0.100700
     43 H12          0.7080     0.6010    -2.7620 ho         1 XTC       0.498000
     44 H1C         -2.4850    -0.2280    -2.7700 ho         1 XTC       0.435000
     45 H4          -3.1370    -1.8260     1.7920 h1         1 XTC       0.064700
     46 H431        -5.0920    -3.4700     1.6240 h1         1 XTC       0.036533
     47 H432        -4.6760    -4.4790     0.2340 h1         1 XTC       0.036533
     48 H433        -3.4260    -4.0250     1.3820 h1         1 XTC       0.036533
     49 H421        -4.8800    -1.2540    -1.3840 h1         1 XTC       0.036533
     50 H422        -5.3020    -2.9500    -1.5130 h1         1 XTC       0.036533
     51 H423        -6.0480    -1.9630    -0.2570 h1         1 XTC       0.036533
     52 H3          -5.5970     0.4940     1.7450 ho         1 XTC       0.462000
     53 H211        -4.4110     2.2860     2.3720 hn         1 XTC       0.303500
     54 H212        -5.5490     3.3330     1.6690 hn         1 XTC       0.303500
@<TRIPOS>BOND
     1     1     2 1   
     2     2     3 1   
     3     2     4 1   
     4     4     5 ar  
     5     4     7 ar  
     6     5     6 ar  
     7     5    34 1   
     8     6    10 ar  
     9     6    35 1   
    10     7     8 1   
    11     7     9 ar  
    12     8    36 1   
    13     9    10 ar  
    14     9    12 1   
    15    10    11 1   
    16    11    15 1   
    17    11    37 1   
    18    11    38 1   
    19    12    13 2   
    20    12    14 1   
    21    14    15 1   
    22    14    17 2   
    23    15    16 1   
    24    15    39 1   
    25    16    23 1   
    26    16    40 1   
    27    16    41 1   
    28    17    18 1   
    29    17    19 1   
    30    18    43 1   
    31    19    20 1   
    32    19    21 1   
    33    19    23 1   
    34    20    44 1   
    35    21    22 2   
    36    21    30 1   
    37    23    24 1   
    38    23    42 1   
    39    24    25 1   
    40    24    28 1   
    41    24    45 1   
    42    25    26 1   
    43    25    27 1   
    44    26    46 1   
    45    26    47 1   
    46    26    48 1   
    47    27    49 1   
    48    27    50 1   
    49    27    51 1   
    50    28    29 1   
    51    28    30 2   
    52    29    52 1   
    53    30    31 1   
    54    31    32 2   
    55    31    33 1   
    56    33    53 1   
    57    33    54 1   
@<TRIPOS>SUBSTRUCTURE
     1 XTC         1 TEMP              0 ****  ****    0 ROOT
