@<TRIPOS>MOLECULE
XTC
   54    57     1     0     0
SMALL
No Charge or Current Charge


@<TRIPOS>ATOM
      1 O92          7.6750     1.1730     0.8860 o          1 XTC      -0.394500
      2 N9           6.9310     0.6100     0.0720 no         1 XTC       0.707200
      3 O91          7.3380     0.0540    -0.9560 o          1 XTC      -0.394500
      4 C9           5.5370     0.3460     0.4970 ca         1 XTC      -0.264200
      5 C8           5.2930    -0.0930     1.8110 ca         1 XTC       0.031000
      6 C7           3.9790    -0.3420     2.2290 ca         1 XTC      -0.193000
      7 C10          4.4610     0.5440    -0.3880 ca         1 XTC       0.294100
      8 O10          4.6890     1.0280    -1.6390 oh         1 XTC      -0.503100
      9 C1A          3.1380     0.2730     0.0270 ca         1 XTC      -0.300600
     10 C61          2.9040    -0.1680     1.3430 ca         1 XTC       0.066700
     11 C6           1.4800    -0.3910     1.8340 c6         1 XTC      -0.046100
     12 C11          1.9730     0.4600    -0.9020 c          1 XTC       0.637900
     13 O11          2.1250     1.0690    -1.9580 o          1 XTC      -0.647100
     14 C1B          0.6310    -0.1130    -0.5530 ce         1 XTC      -0.380400
     15 C51          0.5470    -0.9390     0.7320 c6         1 XTC       0.021500
     16 C5          -0.9040    -0.9960     1.2420 c6         1 XTC      -0.078400
     17 C12         -0.4410    -0.0110    -1.3810 c2         1 XTC       0.231900
     18 O12         -0.3420     0.6120    -2.5670 oh         1 XTC      -0.519100
     19 C1C         -1.8390    -0.6470    -1.1430 c6         1 XTC       0.134200
     20 O1C         -2.0810    -1.5110    -2.2860 oh         1 XTC      -0.624000
     21 C1          -2.9370     0.4940    -1.1110 c          1 XTC       0.577300
     22 O1          -3.1690     1.1490    -2.1220 o          1 XTC      -0.492100
     23 C41         -1.8820    -1.5360     0.1540 c6         1 XTC      -0.047700
     24 C4          -3.3050    -1.6550     0.7890 c6         1 XTC       0.251700
     25 N4          -4.2320    -2.6270     0.1000 n3         1 XTC      -0.743600
     26 C43         -5.0640    -3.3940     1.0580 c3         1 XTC       0.171100
     27 C42         -5.0650    -2.0690    -0.9980 c3         1 XTC       0.171100
     28 C3          -3.8750    -0.2450     1.0290 c2         1 XTC       0.203900
     29 O3          -4.6310    -0.1830     2.1420 oh         1 XTC      -0.523100
     30 C2          -3.6300     0.7980     0.1910 ce         1 XTC      -0.416400
     31 C21         -4.0970     2.1970     0.4390 c          1 XTC       0.614300
     32 O21         -4.2270     3.0440    -0.4230 o          1 XTC      -0.544100
     33 N21         -4.3460     2.5430     1.7190 nt         1 XTC      -0.613000
     34 H8           6.1160    -0.2410     2.5110 ha         1 XTC       0.151000
     35 H7           3.7980    -0.6690     3.2500 ha         1 XTC       0.131000
     36 H10          3.7890     1.1640    -2.0360 ho         1 XTC       0.533000
     37 H61C         1.4800    -1.0800     2.6900 hc         1 XTC       0.066200
     38 H62C         1.0900     0.5650     2.2100 hc         1 XTC       0.066200
     39 H51          0.8720    -1.9630     0.4960 hc         1 XTC       0.060700
     40 H51C        -0.9430    -1.6380     2.1330 hc         1 XTC       0.050700
     41 H52C        -1.2130     0.0070     1.5710 hc         1 XTC       0.050700
     42 H41         -1.5460    -2.5500    -0.1030 hc         1 XTC       0.100700
     43 H12          0.5970     0.9400    -2.5970 ho         1 XTC       0.537000
     44 H1C         -1.8480    -0.9710    -3.0750 ho         1 XTC       0.474000
     45 H4          -3.1170    -2.0730     1.7900 h1         1 XTC       0.064700
     46 H431        -5.7600    -2.7330     1.5930 h1         1 XTC       0.036533
     47 H432        -5.6530    -4.1600     0.5360 h1         1 XTC       0.036533
     48 H433        -4.4360    -3.9050     1.8000 h1         1 XTC       0.036533
     49 H421        -4.4680    -1.5830    -1.7730 h1         1 XTC       0.036533
     50 H422        -5.6360    -2.8700    -1.4880 h1         1 XTC       0.036533
     51 H423        -5.7850    -1.3350    -0.6120 h1         1 XTC       0.036533
     52 H3          -5.2260     0.5910     2.0510 ho         1 XTC       0.501000
     53 H211        -4.0330     1.9480     2.4720 hn         1 XTC       0.303500
     54 H212        -4.6280     3.4940     1.9150 hn         1 XTC       0.303500
@<TRIPOS>BOND
     1     1     2 1   
     2     2     3 1   
     3     2     4 1   
     4     4     5 ar  
     5     4     7 ar  
     6     5     6 ar  
     7     5    34 1   
     8     6    10 ar  
     9     6    35 1   
    10     7     8 1   
    11     7     9 ar  
    12     8    36 1   
    13     9    10 ar  
    14     9    12 1   
    15    10    11 1   
    16    11    15 1   
    17    11    37 1   
    18    11    38 1   
    19    12    13 2   
    20    12    14 1   
    21    14    15 1   
    22    14    17 2   
    23    15    16 1   
    24    15    39 1   
    25    16    23 1   
    26    16    40 1   
    27    16    41 1   
    28    17    18 1   
    29    17    19 1   
    30    18    43 1   
    31    19    20 1   
    32    19    21 1   
    33    19    23 1   
    34    20    44 1   
    35    21    22 2   
    36    21    30 1   
    37    23    24 1   
    38    23    42 1   
    39    24    25 1   
    40    24    28 1   
    41    24    45 1   
    42    25    26 1   
    43    25    27 1   
    44    26    46 1   
    45    26    47 1   
    46    26    48 1   
    47    27    49 1   
    48    27    50 1   
    49    27    51 1   
    50    28    29 1   
    51    28    30 2   
    52    29    52 1   
    53    30    31 1   
    54    31    32 2   
    55    31    33 1   
    56    33    53 1   
    57    33    54 1   
@<TRIPOS>SUBSTRUCTURE
     1 XTC         1 TEMP              0 ****  ****    0 ROOT
