@<TRIPOS>MOLECULE
XTD
   39    41     1     0     0
SMALL
No Charge or Current Charge


@<TRIPOS>ATOM
      1 C1         102.3140   122.0770   112.4130 ca         1 XTD      -0.154600
      2 C2         103.1950   121.5830   111.4220 ca         1 XTD      -0.067500
      3 C3         103.3650   122.2760   110.2110 ca         1 XTD      -0.114000
      4 C4         102.6500   123.4580   109.9700 ca         1 XTD       0.133000
      5 C5         101.7550   123.9450   110.9330 ca         1 XTD      -0.114000
      6 C6         101.5810   123.2560   112.1450 ca         1 XTD      -0.067500
      7 C7         103.2330   120.5020   114.2170 cc         1 XTD      -0.333600
      8 C9         105.4480   119.7710   114.4730 cd         1 XTD      -0.254000
      9 C8         103.0030   119.2140   114.6170 cd         1 XTD       0.314000
     10 C10        104.6310   120.8080   114.0870 cc         1 XTD       0.022000
     11 C11        105.2720   122.1010   113.7770 ca         1 XTD      -0.027000
     12 C12        104.6170   123.3210   114.0450 ca         1 XTD      -0.022500
     13 N          101.7760   118.6250   114.7430 nv         1 XTD      -1.083000
     14 C          102.1320   121.3780   113.7460 c          1 XTD       0.633300
     15 O          101.0470   121.4170   114.3190 o          1 XTD      -0.577100
     16 C13        105.1990   124.5580   113.7010 ca         1 XTD      -0.204300
     17 C14        104.4550   125.8670   113.9830 c3         1 XTD       0.359800
     18 C15        106.4800   124.5760   113.1150 ca         1 XTD      -0.008000
     19 C16        107.1720   123.3730   112.8690 ca         1 XTD      -0.204300
     20 C17        108.5570   123.3930   112.2150 c3         1 XTD       0.359800
     21 C18        106.5580   122.1450   113.1940 ca         1 XTD      -0.022500
     22 F          104.7400   126.3370   115.2180 f          1 XTD      -0.110000
     23 F1         104.7780   126.8440   113.1050 f          1 XTD      -0.110000
     24 F2         103.1120   125.7200   113.9160 f          1 XTD      -0.110000
     25 F3         108.4650   123.2960   110.8690 f          1 XTD      -0.110000
     26 F4         109.3360   122.3680   112.6320 f          1 XTD      -0.110000
     27 F5         109.2410   124.5290   112.4840 f          1 XTD      -0.110000
     28 S          104.5180   118.3430   114.9410 ss         1 XTD       0.143000
     29 Cl         102.8710   124.3260   108.4560 cl         1 XTD      -0.194000
     30 H1         103.7500   120.6610   111.5790 ha         1 XTD       0.127000
     31 H2         104.0510   121.8950   109.4580 ha         1 XTD       0.135500
     32 H3         101.1980   124.8590   110.7420 ha         1 XTD       0.135500
     33 H4         100.8900   123.6520   112.8880 ha         1 XTD       0.127000
     34 H5         106.5270   119.7470   114.5500 h4         1 XTD       0.159000
     35 H6         103.6530   123.3140   114.5450 ha         1 XTD       0.140000
     36 H7         101.6940   117.7450   115.2510 hn         1 XTD       0.516500
     37 H8         100.9580   119.2360   114.7710 hn         1 XTD       0.516500
     38 H9         106.9410   125.5280   112.8530 ha         1 XTD       0.148000
     39 H10        107.0730   121.2180   112.9570 ha         1 XTD       0.140000
@<TRIPOS>BOND
     1     1     2 ar  
     2     1     6 ar  
     3     1    14 1   
     4     2     3 ar  
     5     2    30 1   
     6     3     4 ar  
     7     3    31 1   
     8     4     5 ar  
     9     4    29 1   
    10     5     6 ar  
    11     5    32 1   
    12     6    33 1   
    13     7     9 2   
    14     7    10 1   
    15     7    14 1   
    16     8    10 2   
    17     8    28 1   
    18     8    34 1   
    19     9    13 1   
    20     9    28 1   
    21    10    11 1   
    22    11    12 ar  
    23    11    21 ar  
    24    12    16 ar  
    25    12    35 1   
    26    13    36 1   
    27    13    37 1   
    28    14    15 2   
    29    16    17 1   
    30    16    18 ar  
    31    17    22 1   
    32    17    23 1   
    33    17    24 1   
    34    18    19 ar  
    35    18    38 1   
    36    19    20 1   
    37    19    21 ar  
    38    20    25 1   
    39    20    26 1   
    40    20    27 1   
    41    21    39 1   
@<TRIPOS>SUBSTRUCTURE
     1 XTD         1 TEMP              0 ****  ****    0 ROOT
