@<TRIPOS>MOLECULE
XTD
   39    41     1     0     0
SMALL
bcc


@<TRIPOS>ATOM
      1 C1         102.5140   121.9790   112.2580 ca         1 XTD      -0.154600
      2 C2         103.5640   121.8120   111.3620 ca         1 XTD      -0.085500
      3 C3         103.9030   122.8210   110.4760 ca         1 XTD      -0.132000
      4 C4         103.1840   124.0060   110.5010 ca         1 XTD       0.041400
      5 C5         102.1070   124.1780   111.3580 ca         1 XTD      -0.132000
      6 C6         101.7660   123.1510   112.2220 ca         1 XTD      -0.085500
      7 C7         103.1900   120.3670   114.1030 cc         1 XTD      -0.333600
      8 C9         105.2680   120.0190   115.1210 cd         1 XTD      -0.127100
      9 C8         102.9510   119.1790   114.8110 cd         1 XTD       0.320500
     10 C10        104.5440   120.8390   114.3280 cc         1 XTD       0.022000
     11 C11        105.1330   122.0960   113.8280 ca         1 XTD      -0.027000
     12 C12        104.5360   123.3280   114.1000 ca         1 XTD      -0.040500
     13 N          101.8310   118.4620   114.8620 nv         1 XTD      -0.834200
     14 C          102.1610   120.9220   113.2490 c          1 XTD       0.633300
     15 O          100.9920   120.5470   113.3090 o          1 XTD      -0.577100
     16 C13        105.0810   124.4930   113.5930 ca         1 XTD      -0.204300
     17 C14        104.4550   125.8250   113.8820 c3         1 XTD       0.723700
     18 C15        106.2340   124.4550   112.8110 ca         1 XTD      -0.026000
     19 C16        106.8420   123.2370   112.5700 ca         1 XTD      -0.204300
     20 C17        108.0610   123.1280   111.7070 c3         1 XTD       0.723700
     21 C18        106.2980   122.0630   113.0800 ca         1 XTD      -0.040500
     22 F          105.2580   126.5930   114.6330 f          1 XTD      -0.231300
     23 F1         104.2100   126.5130   112.7590 f          1 XTD      -0.231300
     24 F2         103.2970   125.7180   114.5360 f          1 XTD      -0.231300
     25 F3         107.8120   122.4080   110.6040 f          1 XTD      -0.231300
     26 F4         109.0650   122.5110   112.3460 f          1 XTD      -0.231300
     27 F5         108.5190   124.3150   111.3040 f          1 XTD      -0.231300
     28 S          104.3590   118.6490   115.6630 ss         1 XTD      -0.146800
     29 CL         103.6450   125.2980   109.4460 cl         1 XTD      -0.102400
     30 H1         104.1350   120.8920   111.3560 ha         1 XTD       0.145000
     31 H2         104.7300   122.6920   109.7910 ha         1 XTD       0.153500
     32 H3         101.5440   125.1020   111.3560 ha         1 XTD       0.153500
     33 H4         100.9360   123.2870   112.9030 ha         1 XTD       0.145000
     34 H5         106.2790   120.1600   115.4690 h4         1 XTD       0.177000
     35 H6         103.6410   123.3520   114.7070 ha         1 XTD       0.158000
     36 H7         101.7840   117.5780   115.3390 hn         1 XTD       0.461300
     37 H8         101.0080   118.8160   114.4000 hn         1 XTD       0.461300
     38 H9         106.6450   125.3680   112.4010 ha         1 XTD       0.166000
     39 H10        106.7540   121.1040   112.8640 ha         1 XTD       0.158000
@<TRIPOS>BOND
     1     1     2 ar  
     2     1     6 ar  
     3     1    14 1   
     4     2     3 ar  
     5     2    30 1   
     6     3     4 ar  
     7     3    31 1   
     8     4     5 ar  
     9     4    29 1   
    10     5     6 ar  
    11     5    32 1   
    12     6    33 1   
    13     7     9 2   
    14     7    10 1   
    15     7    14 1   
    16     8    10 2   
    17     8    28 1   
    18     8    34 1   
    19     9    13 1   
    20     9    28 1   
    21    10    11 1   
    22    11    12 ar  
    23    11    21 ar  
    24    12    16 ar  
    25    12    35 1   
    26    13    36 1   
    27    13    37 1   
    28    14    15 2   
    29    16    17 1   
    30    16    18 ar  
    31    17    22 1   
    32    17    23 1   
    33    17    24 1   
    34    18    19 ar  
    35    18    38 1   
    36    19    20 1   
    37    19    21 ar  
    38    20    25 1   
    39    20    26 1   
    40    20    27 1   
    41    21    39 1   
@<TRIPOS>SUBSTRUCTURE
     1 XTD         1 TEMP              0 ****  ****    0 ROOT
