@<TRIPOS>MOLECULE
XTG
   53    55     1     0     0
SMALL
abcg2


@<TRIPOS>ATOM
      1 C14         -3.4450     2.9580    -0.7980 ca         1 XTG      -0.175000
      2 C13         -2.9730     4.2270    -0.5430 ca         1 XTG      -0.009000
      3 C12         -1.8130     4.3830     0.2080 ca         1 XTG      -0.219200
      4 N1          -1.3150     5.7120     0.4820 no         1 XTG       0.701200
      5 O10         -1.9410     6.6550     0.0550 o          1 XTG      -0.405000
      6 O11         -0.2950     5.8210     1.1250 o          1 XTG      -0.405000
      7 C17         -1.1250     3.2800     0.6930 ca         1 XTG      -0.009000
      8 C16         -1.5950     2.0060     0.4330 ca         1 XTG      -0.175000
      9 C15         -2.7650     1.8410    -0.3080 ca         1 XTG       0.194100
     10 O1          -3.3170     0.6510    -0.6080 os         1 XTG      -0.334100
     11 C1          -2.8700    -0.5090     0.0270 c6         1 XTG       0.362300
     12 O5          -1.6700    -0.8900    -0.5760 os         1 XTG      -0.463000
     13 C2          -3.9280    -1.5900    -0.1750 c6         1 XTG       0.116300
     14 O2          -5.1220    -1.2780     0.4900 oh         1 XTG      -0.718000
     15 C3          -3.3970    -2.8970     0.4060 c6         1 XTG       0.137300
     16 O3          -4.2430    -3.9810     0.1160 oh         1 XTG      -0.660000
     17 C4          -2.0200    -3.2260    -0.1660 c6         1 XTG       0.147300
     18 O4          -1.4390    -4.3300     0.4770 oh         1 XTG      -0.715000
     19 C5          -1.0930    -2.0290     0.0370 c6         1 XTG       0.186300
     20 C6           0.2750    -2.2240    -0.5810 c3         1 XTG       0.069600
     21 S6           1.2360    -0.6890    -0.3960 ss         1 XTG      -0.379000
     22 C7           2.8770    -1.3730    -0.0930 c6         1 XTG       0.273300
     23 O9           3.3850    -1.8640    -1.3050 os         1 XTG      -0.416000
     24 C11          4.6480    -2.4780    -1.1380 c6         1 XTG       0.116600
     25 C10          5.6920    -1.4830    -0.6540 c6         1 XTG       0.115300
     26 O8           5.9620    -0.4800    -1.6020 oh         1 XTG      -0.682000
     27 C9           5.2030    -0.8010     0.6300 c6         1 XTG       0.166300
     28 O7           5.1800    -1.7270     1.6920 oh         1 XTG      -0.667000
     29 C8           3.7660    -0.2790     0.5020 c6         1 XTG       0.169300
     30 O6           3.7520     0.8810    -0.2930 oh         1 XTG      -0.678000
     31 H14         -4.3490     2.8230    -1.3760 ha         1 XTG       0.141000
     32 H13         -3.5140     5.0810    -0.9240 ha         1 XTG       0.151000
     33 H17         -0.2200     3.3970     1.2700 ha         1 XTG       0.151000
     34 H16         -1.0230     1.1660     0.7990 ha         1 XTG       0.141000
     35 H1          -2.7240    -0.3240     1.1050 h2         1 XTG       0.050700
     36 H2          -4.0840    -1.7180    -1.2560 h1         1 XTG       0.073700
     37 HO2         -5.6100    -0.6300    -0.0280 ho         1 XTG       0.525000
     38 H3          -3.2870    -2.7670     1.4940 h1         1 XTG       0.053700
     39 HO3         -5.0510    -3.8910     0.6310 ho         1 XTG       0.467000
     40 H4          -2.1230    -3.4020    -1.2480 h1         1 XTG       0.062700
     41 HO4         -2.0150    -5.0910     0.3540 ho         1 XTG       0.528000
     42 H5          -0.9690    -1.8510     1.1170 h1         1 XTG       0.058700
     43 H61          0.1890    -2.4890    -1.6360 h1         1 XTG       0.086700
     44 H62          0.7950    -3.0310    -0.0670 h1         1 XTG       0.086700
     45 H7           2.7770    -2.1850     0.6420 h2         1 XTG       0.061700
     46 H111         4.9310    -2.8920    -2.1090 h1         1 XTG       0.051200
     47 H112         4.5880    -3.3160    -0.4320 h1         1 XTG       0.051200
     48 H10          6.6050    -2.0490    -0.4110 h1         1 XTG       0.022700
     49 HO8          6.3550    -0.8950    -2.3760 ho         1 XTG       0.503000
     50 H9           5.8610     0.0500     0.8560 h1         1 XTG       0.069700
     51 HO7          6.0600    -2.1030     1.7920 ho         1 XTG       0.451000
     52 H8           3.4030    -0.0680     1.5160 h1         1 XTG       0.056700
     53 HO6          3.1400     1.5110     0.0980 ho         1 XTG       0.507000
@<TRIPOS>BOND
     1     1     2 ar  
     2     1     9 ar  
     3     1    31 1   
     4     2     3 ar  
     5     2    32 1   
     6     3     4 1   
     7     3     7 ar  
     8     4     5 1   
     9     4     6 1   
    10     7     8 ar  
    11     7    33 1   
    12     8     9 ar  
    13     8    34 1   
    14     9    10 1   
    15    10    11 1   
    16    11    12 1   
    17    11    13 1   
    18    11    35 1   
    19    12    19 1   
    20    13    14 1   
    21    13    15 1   
    22    13    36 1   
    23    14    37 1   
    24    15    16 1   
    25    15    17 1   
    26    15    38 1   
    27    16    39 1   
    28    17    18 1   
    29    17    19 1   
    30    17    40 1   
    31    18    41 1   
    32    19    20 1   
    33    19    42 1   
    34    20    21 1   
    35    20    43 1   
    36    20    44 1   
    37    21    22 1   
    38    22    23 1   
    39    22    29 1   
    40    22    45 1   
    41    23    24 1   
    42    24    25 1   
    43    24    46 1   
    44    24    47 1   
    45    25    26 1   
    46    25    27 1   
    47    25    48 1   
    48    26    49 1   
    49    27    28 1   
    50    27    29 1   
    51    27    50 1   
    52    28    51 1   
    53    29    30 1   
    54    29    52 1   
    55    30    53 1   
@<TRIPOS>SUBSTRUCTURE
     1 XTG         1 TEMP              0 ****  ****    0 ROOT
