@<TRIPOS>MOLECULE
XTG
   53    55     1     0     0
SMALL
No Charge or Current Charge


@<TRIPOS>ATOM
      1 C14         -3.2160     2.9550    -1.1440 ca         1 XTG      -0.175000
      2 C13         -2.6850     4.2310    -0.8910 ca         1 XTG      -0.009000
      3 C12         -1.7750     4.4220     0.1750 ca         1 XTG      -0.219200
      4 N1          -1.2040     5.7780     0.4500 no         1 XTG       0.701200
      5 O10         -1.5460     6.7170    -0.2810 o          1 XTG      -0.405000
      6 O11         -0.4160     5.9000     1.3970 o          1 XTG      -0.405000
      7 C17         -1.4130     3.3150     0.9770 ca         1 XTG      -0.009000
      8 C16         -1.9520     2.0430     0.7170 ca         1 XTG      -0.175000
      9 C15         -2.8560     1.8560    -0.3510 ca         1 XTG       0.194100
     10 O1          -3.4260     0.6360    -0.6590 os         1 XTG      -0.334100
     11 C1          -3.0720    -0.5610     0.0580 c6         1 XTG       0.362300
     12 O5          -1.6920    -0.8890    -0.2060 os         1 XTG      -0.463000
     13 C2          -3.9780    -1.7510    -0.4000 c6         1 XTG       0.116300
     14 O2          -5.3910    -1.4960    -0.1970 oh         1 XTG      -0.718000
     15 C3          -3.5410    -3.0320     0.3680 c6         1 XTG       0.137300
     16 O3          -4.3260    -4.1600    -0.0560 oh         1 XTG      -0.660000
     17 C4          -2.0210    -3.3020     0.1490 c6         1 XTG       0.147300
     18 O4          -1.6190    -4.4610     0.9040 oh         1 XTG      -0.715000
     19 C5          -1.2080    -2.0290     0.5460 c6         1 XTG       0.186300
     20 C6           0.3120    -2.1710     0.2540 c3         1 XTG       0.069600
     21 S6           1.3100    -0.7180     0.8400 ss         1 XTG      -0.379000
     22 C7           3.0130    -1.3130     0.4230 c6         1 XTG       0.273300
     23 O9           3.0660    -1.5840    -0.9970 os         1 XTG      -0.416000
     24 C11          4.3000    -2.2180    -1.4070 c6         1 XTG       0.116600
     25 C10          5.5190    -1.2920    -1.1070 c6         1 XTG       0.115300
     26 O8           5.4340    -0.0850    -1.8990 oh         1 XTG      -0.682000
     27 C9           5.5260    -0.9390     0.4240 c6         1 XTG       0.166300
     28 O7           5.7870    -2.1160     1.2180 oh         1 XTG      -0.667000
     29 C8           4.1490    -0.3040     0.8200 c6         1 XTG       0.169300
     30 O6           3.9980     0.9590     0.1360 oh         1 XTG      -0.678000
     31 H14         -3.9150     2.8160    -1.9650 ha         1 XTG       0.141000
     32 H13         -2.9850     5.0630    -1.5270 ha         1 XTG       0.151000
     33 H17         -0.7140     3.4300     1.8040 ha         1 XTG       0.151000
     34 H16         -1.6490     1.2170     1.3530 ha         1 XTG       0.141000
     35 H1          -3.2170    -0.3940     1.1360 h2         1 XTG       0.050700
     36 H2          -3.7820    -1.9140    -1.4720 h1         1 XTG       0.073700
     37 HO2         -5.5900    -0.6320    -0.6330 ho         1 XTG       0.525000
     38 H3          -3.7060    -2.8520     1.4410 h1         1 XTG       0.053700
     39 HO3         -5.2370    -3.8020    -0.1740 ho         1 XTG       0.467000
     40 H4          -1.8580    -3.4850    -0.9240 h1         1 XTG       0.062700
     41 HO4         -2.3630    -5.1040     0.7980 ho         1 XTG       0.528000
     42 H5          -1.3360    -1.8300     1.6210 h1         1 XTG       0.058700
     43 H61          0.4560    -2.2980    -0.8270 h1         1 XTG       0.086700
     44 H62          0.6840    -3.0740     0.7540 h1         1 XTG       0.086700
     45 H7           3.1520    -2.2510     0.9800 h2         1 XTG       0.061700
     46 H111         4.2480    -2.4340    -2.4840 h1         1 XTG       0.051200
     47 H112         4.4080    -3.1770    -0.8800 h1         1 XTG       0.051200
     48 H10          6.4470    -1.8290    -1.3520 h1         1 XTG       0.022700
     49 HO8          5.6690    -0.3290    -2.8260 ho         1 XTG       0.503000
     50 H9           6.3150    -0.1930     0.6080 h1         1 XTG       0.069700
     51 HO7          6.7400    -2.3310     1.1100 ho         1 XTG       0.451000
     52 H8           4.1220    -0.1510     1.9090 h1         1 XTG       0.056700
     53 HO6          4.3810     0.7760    -0.7650 ho         1 XTG       0.507000
@<TRIPOS>BOND
     1     1     2 ar  
     2     1     9 ar  
     3     1    31 1   
     4     2     3 ar  
     5     2    32 1   
     6     3     4 1   
     7     3     7 ar  
     8     4     5 1   
     9     4     6 1   
    10     7     8 ar  
    11     7    33 1   
    12     8     9 ar  
    13     8    34 1   
    14     9    10 1   
    15    10    11 1   
    16    11    12 1   
    17    11    13 1   
    18    11    35 1   
    19    12    19 1   
    20    13    14 1   
    21    13    15 1   
    22    13    36 1   
    23    14    37 1   
    24    15    16 1   
    25    15    17 1   
    26    15    38 1   
    27    16    39 1   
    28    17    18 1   
    29    17    19 1   
    30    17    40 1   
    31    18    41 1   
    32    19    20 1   
    33    19    42 1   
    34    20    21 1   
    35    20    43 1   
    36    20    44 1   
    37    21    22 1   
    38    22    23 1   
    39    22    29 1   
    40    22    45 1   
    41    23    24 1   
    42    24    25 1   
    43    24    46 1   
    44    24    47 1   
    45    25    26 1   
    46    25    27 1   
    47    25    48 1   
    48    26    49 1   
    49    27    28 1   
    50    27    29 1   
    51    27    50 1   
    52    28    51 1   
    53    29    30 1   
    54    29    52 1   
    55    30    53 1   
@<TRIPOS>SUBSTRUCTURE
     1 XTG         1 TEMP              0 ****  ****    0 ROOT
