@<TRIPOS>MOLECULE
XTI
   34    37     1     0     0
SMALL
No Charge or Current Charge


@<TRIPOS>ATOM
      1 C01          4.0040    16.6300    -0.7110 c6         1 XTI       0.216800
      2 C02          3.4010    16.7770     0.7000 c6         1 XTI       0.027600
      3 C03          7.1990    16.6270    -3.3970 ca         1 XTI       0.176900
      4 C04          8.0890    18.5460    -2.5530 ca         1 XTI       0.119500
      5 C05          6.9660    18.7460    -1.7870 ca         1 XTI      -0.070600
      6 C06          5.9130    17.7920    -1.8700 ca         1 XTI       0.442900
      7 C07          8.2870    20.4040    -1.3320 cc         1 XTI       0.417700
      8 C08          2.9660    19.3670    -0.1840 ce         1 XTI       0.016400
      9 C09          4.0640    19.1290    -0.9450 c2         1 XTI       0.026000
     10 C10          2.4060    20.7100    -0.0690 cc         1 XTI      -0.149800
     11 C11          1.0050    22.4400    -0.1390 cc         1 XTI       0.396400
     12 C12          3.0370    21.8760     0.2930 cd         1 XTI       0.253900
     13 N01          4.7010    17.8870    -1.1260 nh         1 XTI      -0.637100
     14 N02          6.0500    16.7210    -2.6880 nb         1 XTI      -0.286000
     15 N03          8.2370    17.4920    -3.3730 nb         1 XTI      -0.203000
     16 N04          8.9130    19.5900    -2.2680 na         1 XTI      -0.418300
     17 N05          7.0780    19.9110    -1.0090 nd         1 XTI      -0.556100
     18 N06          1.1070    21.0830    -0.3640 na         1 XTI      -0.166500
     19 N07          2.1640    22.9450     0.2560 nd         1 XTI      -0.677000
     20 S01          2.1280    18.1120     0.7830 ss         1 XTI      -0.324600
     21 H1           3.1990    16.3920    -1.4210 h1         1 XTI       0.079200
     22 H2           4.6970    15.7750    -0.7010 h1         1 XTI       0.079200
     23 H3           2.9380    15.8320     1.0160 h1         1 XTI       0.083700
     24 H4           4.2010    17.0220     1.4120 h1         1 XTI       0.083700
     25 H5           7.2990    15.7640    -4.0530 h5         1 XTI       0.053100
     26 H6           8.7440    21.3060    -0.9390 h5         1 XTI       0.073800
     27 H7           4.5170    19.9600    -1.4900 h4         1 XTI       0.245000
     28 H8           0.0810    22.9860    -0.2890 h5         1 XTI       0.053100
     29 H9           4.0740    22.0020     0.5810 h4         1 XTI       0.042100
     30 H10         -0.7380    20.8120    -1.3600 h1         1 XTI       0.055700
     31 H11          0.4330    19.4770    -1.5590 h1         1 XTI       0.055700
     32 H12         -0.4310    19.6850    -0.0060 h1         1 XTI       0.055700
     33 H13          9.8290    19.7520    -2.6640 hn         1 XTI       0.374000
     34 C13          0.0270    20.2110    -0.8520 c3         1 XTI       0.060900
@<TRIPOS>BOND
     1     1     2 1   
     2     1    13 1   
     3     1    21 1   
     4     1    22 1   
     5     2    20 1   
     6     2    23 1   
     7     2    24 1   
     8     3    14 ar  
     9     3    15 ar  
    10     3    25 1   
    11     4     5 ar  
    12     4    15 ar  
    13     4    16 1   
    14     5     6 ar  
    15     5    17 1   
    16     6    13 1   
    17     6    14 ar  
    18     7    16 1   
    19     7    17 2   
    20     7    26 1   
    21     8     9 2   
    22     8    10 1   
    23     8    20 1   
    24     9    13 1   
    25     9    27 1   
    26    10    12 2   
    27    10    18 1   
    28    11    18 1   
    29    11    19 2   
    30    11    28 1   
    31    12    19 1   
    32    12    29 1   
    33    16    33 1   
    34    18    34 1   
    35    30    34 1   
    36    31    34 1   
    37    32    34 1   
@<TRIPOS>SUBSTRUCTURE
     1 XTI         1 TEMP              0 ****  ****    0 ROOT
