@<TRIPOS>MOLECULE
XTI
   34    37     1     0     0
SMALL
abcg2


@<TRIPOS>ATOM
      1 C01          3.9070    16.6080    -0.9180 c6         1 XTI       0.216800
      2 C02          3.1990    16.6260     0.4250 c6         1 XTI       0.027600
      3 C03          7.5470    16.4200    -2.6940 ca         1 XTI       0.176900
      4 C04          8.0210    18.5690    -2.5290 ca         1 XTI       0.119500
      5 C05          6.7930    18.8630    -1.9130 ca         1 XTI      -0.070600
      6 C06          5.9240    17.7640    -1.7150 ca         1 XTI       0.442900
      7 C07          7.8720    20.7110    -2.0520 cc         1 XTI       0.417700
      8 C08          2.9390    19.2550    -0.1720 ce         1 XTI       0.016400
      9 C09          4.0990    19.0590    -0.8270 c2         1 XTI       0.026000
     10 C10          2.4940    20.6220     0.0900 cc         1 XTI      -0.149800
     11 C11          1.2170    22.4220     0.1430 cc         1 XTI       0.396400
     12 C12          3.1570    21.6790     0.6710 cd         1 XTI       0.253900
     13 N01          4.6830    17.8340    -1.1320 nh         1 XTI      -0.637100
     14 N02          6.3480    16.5560    -2.1260 nb         1 XTI      -0.286000
     15 N03          8.4460    17.3700    -2.9370 nb         1 XTI      -0.203000
     16 N04          8.6850    19.7620    -2.6060 na         1 XTI      -0.418300
     17 N05          6.7340    20.2210    -1.6250 nd         1 XTI      -0.556100
     18 N06          1.2430    21.1200    -0.2390 na         1 XTI      -0.166500
     19 N07          2.3560    22.7960     0.6960 nd         1 XTI      -0.677000
     20 S01          1.9610    17.9510     0.5250 ss         1 XTI      -0.324600
     21 H1           3.1840    16.4900    -1.7280 h1         1 XTI       0.079200
     22 H2           4.5960    15.7710    -0.9540 h1         1 XTI       0.079200
     23 H3           2.6590    15.6920     0.5680 h1         1 XTI       0.083700
     24 H4           3.9180    16.7460     1.2350 h1         1 XTI       0.083700
     25 H5           7.8150    15.4120    -2.9930 h5         1 XTI       0.053100
     26 H6           8.1700    21.7460    -1.9900 h5         1 XTI       0.073800
     27 H7           4.6550    19.9200    -1.1600 h4         1 XTI       0.245000
     28 H8           0.3470    23.0420    -0.0090 h5         1 XTI       0.053100
     29 H9           4.1580    21.6790     1.0710 h4         1 XTI       0.042100
     30 H10         -0.5560    21.1470    -1.2710 h1         1 XTI       0.055700
     31 H11          0.5690    19.8700    -1.7750 h1         1 XTI       0.055700
     32 H12         -0.3260    19.7140    -0.2490 h1         1 XTI       0.055700
     33 H13          9.6030    19.9110    -2.9970 hn         1 XTI       0.374000
     34 C13          0.1680    20.4150    -0.9220 c3         1 XTI       0.060900
@<TRIPOS>BOND
     1     1     2 1   
     2     1    13 1   
     3     1    21 1   
     4     1    22 1   
     5     2    20 1   
     6     2    23 1   
     7     2    24 1   
     8     3    14 ar  
     9     3    15 ar  
    10     3    25 1   
    11     4     5 ar  
    12     4    15 ar  
    13     4    16 1   
    14     5     6 ar  
    15     5    17 1   
    16     6    13 1   
    17     6    14 ar  
    18     7    16 1   
    19     7    17 2   
    20     7    26 1   
    21     8     9 2   
    22     8    10 1   
    23     8    20 1   
    24     9    13 1   
    25     9    27 1   
    26    10    12 2   
    27    10    18 1   
    28    11    18 1   
    29    11    19 2   
    30    11    28 1   
    31    12    19 1   
    32    12    29 1   
    33    16    33 1   
    34    18    34 1   
    35    30    34 1   
    36    31    34 1   
    37    32    34 1   
@<TRIPOS>SUBSTRUCTURE
     1 XTI         1 TEMP              0 ****  ****    0 ROOT
