@<TRIPOS>MOLECULE
XTJ
   58    60     1     0     0
SMALL
bcc


@<TRIPOS>ATOM
      1 C10        -11.6680    14.9720     4.4160 c          1 XTJ       0.707500
      2 C15        -16.7970    13.2100    -0.5870 c3         1 XTJ      -0.056400
      3 C17        -17.7070    11.4980     1.1420 cx         1 XTJ      -0.129400
      4 C20        -15.4100    16.5110     0.3430 c          1 XTJ       0.762100
      5 C22        -14.8700    18.7890     0.1530 c3         1 XTJ       0.204700
      6 C24        -14.3940    21.1360    -0.4950 ca         1 XTJ      -0.145000
      7 C26        -15.2650    22.1540    -2.4990 ca         1 XTJ      -0.168000
      8 C02        -14.5450    13.6330     0.4260 c          1 XTJ       0.658100
      9 C04        -13.0490    12.3250     1.9060 c3         1 XTJ       0.106700
     10 C05        -12.4690    12.8990     3.1970 c3         1 XTJ      -0.068400
     11 C06        -12.2080    14.3940     3.1170 c5         1 XTJ      -0.157700
     12 C07        -11.1720    14.8330     2.0820 c5         1 XTJ      -0.091400
     13 C08        -10.5860    16.1160     2.6740 c5         1 XTJ       0.100000
     14 C12        -13.3160    10.8250     2.0010 c3         1 XTJ       0.125400
     15 C14        -15.9770    14.1570     0.2950 c3         1 XTJ       0.053700
     16 C16        -16.8550    11.8030    -0.0520 cx         1 XTJ      -0.132700
     17 C18        -18.1050    10.9960    -0.2140 cx         1 XTJ      -0.129400
     18 C23        -15.0230    19.9320    -0.8100 ca         1 XTJ      -0.064300
     19 C25        -14.5170    22.2330    -1.3300 ca         1 XTJ      -0.099000
     20 C27        -15.8760    20.9530    -2.7910 ca         1 XTJ       0.134900
     21 C29        -15.7740    19.8400    -1.9750 ca         1 XTJ      -0.146000
     22 F28        -16.6040    20.8540    -3.9150 f          1 XTJ      -0.143900
     23 N03        -14.2930    12.9860     1.5730 ns         1 XTJ      -0.565900
     24 N09        -10.7520    15.9010     4.0950 ns         1 XTJ      -0.581900
     25 N19        -15.9860    15.4740    -0.2890 ns         1 XTJ      -0.550900
     26 O01        -13.7390    13.7770    -0.4800 o          1 XTJ      -0.602100
     27 O11        -12.0140    14.6620     5.5440 o          1 XTJ      -0.637500
     28 O13        -12.1070    10.1590     2.2660 oh         1 XTJ      -0.592800
     29 O21        -15.4400    17.6190    -0.4070 os         1 XTJ      -0.431900
     30 O30        -14.9330    16.4610     1.4580 o          1 XTJ      -0.596000
     31 H151       -16.3810    13.2070    -1.5990 hc         1 XTJ       0.060200
     32 H152       -17.8090    13.6170    -0.6620 hc         1 XTJ       0.060200
     33 H171       -18.2850    12.3090     1.5690 hc         1 XTJ       0.073700
     34 H172       -17.3370    10.7860     1.8680 hc         1 XTJ       0.073700
     35 H222       -15.3630    19.0410     1.0970 h1         1 XTJ       0.061200
     36 H221       -13.8100    18.6330     0.3730 h1         1 XTJ       0.061200
     37 H261       -15.3670    23.0030    -3.1620 ha         1 XTJ       0.151000
     38 H041       -12.3570    12.5040     1.0810 h1         1 XTJ       0.093700
     39 H052       -13.1590    12.6910     4.0210 hc         1 XTJ       0.065200
     40 H051       -11.5360    12.3800     3.4280 hc         1 XTJ       0.065200
     41 H061       -13.1520    14.9180     2.9200 hc         1 XTJ       0.093700
     42 H072       -11.5940    14.9940     1.0910 hc         1 XTJ       0.063700
     43 H071       -10.3910    14.0730     1.9920 hc         1 XTJ       0.063700
     44 H082        -9.5360    16.2570     2.4170 h1         1 XTJ       0.042700
     45 H081       -11.1350    17.0010     2.3390 h1         1 XTJ       0.042700
     46 H121       -14.0610    10.6500     2.7900 h1         1 XTJ       0.020700
     47 H141       -16.4520    14.1980     1.2800 h1         1 XTJ       0.073700
     48 H161       -15.9280    11.2430    -0.1230 hc         1 XTJ       0.085700
     49 H181       -18.9510    11.4660    -0.7010 hc         1 XTJ       0.073700
     50 H182       -18.0060     9.9380    -0.4180 hc         1 XTJ       0.073700
     51 H251       -14.0240    23.1620    -1.0750 ha         1 XTJ       0.137000
     52 H291       -16.2790    18.9260    -2.2580 ha         1 XTJ       0.160000
     53 H031       -15.0200    12.9610     2.2720 hn         1 XTJ       0.315500
     54 H091       -10.3410    16.5070     4.7880 hn         1 XTJ       0.323500
     55 H191       -16.2610    15.5780    -1.2540 hn         1 XTJ       0.337500
     56 H1         -13.7660    10.4940     1.0560 h1         1 XTJ       0.020700
     57 H2         -12.2930     9.2200     2.3600 ho         1 XTJ       0.409000
     58 H241       -13.8050    21.2130     0.4100 ha         1 XTJ       0.136000
@<TRIPOS>BOND
     1     1    11 1   
     2     1    24 1   
     3     1    27 2   
     4     2    15 1   
     5     2    16 1   
     6     2    31 1   
     7     2    32 1   
     8     3    16 1   
     9     3    17 1   
    10     3    33 1   
    11     3    34 1   
    12     4    25 1   
    13     4    29 1   
    14     4    30 2   
    15     5    18 1   
    16     5    29 1   
    17     5    35 1   
    18     5    36 1   
    19     6    18 ar  
    20     6    19 ar  
    21     6    58 1   
    22     7    19 ar  
    23     7    20 ar  
    24     7    37 1   
    25     8    15 1   
    26     8    23 1   
    27     8    26 2   
    28     9    10 1   
    29     9    14 1   
    30     9    23 1   
    31     9    38 1   
    32    10    11 1   
    33    10    39 1   
    34    10    40 1   
    35    11    12 1   
    36    11    41 1   
    37    12    13 1   
    38    12    42 1   
    39    12    43 1   
    40    13    24 1   
    41    13    44 1   
    42    13    45 1   
    43    14    28 1   
    44    14    46 1   
    45    14    56 1   
    46    15    25 1   
    47    15    47 1   
    48    16    17 1   
    49    16    48 1   
    50    17    49 1   
    51    17    50 1   
    52    18    21 ar  
    53    19    51 1   
    54    20    21 ar  
    55    20    22 1   
    56    21    52 1   
    57    23    53 1   
    58    24    54 1   
    59    25    55 1   
    60    28    57 1   
@<TRIPOS>SUBSTRUCTURE
     1 XTJ         1 TEMP              0 ****  ****    0 ROOT
