@<TRIPOS>MOLECULE
XTJ
   58    60     1     0     0
SMALL
No Charge or Current Charge


@<TRIPOS>ATOM
      1 C10        -11.4190    12.8710     5.1730 c          1 XTJ       0.565000
      2 C15        -16.6100    13.8770     0.1070 c3         1 XTJ      -0.056400
      3 C17        -17.2130    12.5250     2.2990 cx         1 XTJ      -0.129400
      4 C20        -16.2230    17.0870     0.0860 c          1 XTJ       0.646100
      5 C22        -16.7060    19.2990    -0.6840 c3         1 XTJ       0.227900
      6 C24        -15.3250    21.3040    -1.4350 ca         1 XTJ      -0.127000
      7 C26        -15.3360    22.0580    -3.7500 ca         1 XTJ      -0.150000
      8 C02        -14.0390    14.0250     0.3650 c          1 XTJ       0.591100
      9 C04        -12.4790    12.3120     1.3680 c3         1 XTJ       0.106700
     10 C05        -12.0690    11.9870     2.8290 c3         1 XTJ      -0.068400
     11 C06        -11.8970    13.2230     3.7580 c5         1 XTJ      -0.157700
     12 C07        -10.8370    14.2590     3.2880 c5         1 XTJ      -0.091400
     13 C08        -10.5350    15.0120     4.6130 c5         1 XTJ       0.100000
     14 C12        -12.6450    11.0470     0.4810 c3         1 XTJ       0.148600
     15 C14        -15.4050    14.7460     0.5620 c3         1 XTJ       0.053700
     16 C16        -16.7570    12.5540     0.8590 cx         1 XTJ      -0.132700
     17 C18        -18.1210    12.0070     1.2070 cx         1 XTJ      -0.129400
     18 C23        -16.2250    20.2680    -1.7570 ca         1 XTJ      -0.064300
     19 C25        -14.8820    22.1970    -2.4270 ca         1 XTJ      -0.081000
     20 C27        -16.2310    21.0270    -4.0740 ca         1 XTJ       0.170000
     21 C29        -16.6750    20.1340    -3.0860 ca         1 XTJ      -0.128000
     22 F28        -16.6660    20.8920    -5.3460 f          1 XTJ      -0.179000
     23 N03        -13.7060    13.1190     1.3500 ns         1 XTJ      -0.498900
     24 N09        -10.6260    13.9130     5.5710 ns         1 XTJ      -0.514900
     25 N19        -15.3990    16.0300    -0.1700 ns         1 XTJ      -0.483900
     26 O01        -13.2910    14.2570    -0.5770 o          1 XTJ      -0.602100
     27 O11        -11.4920    11.8160     5.7810 o          1 XTJ      -0.562000
     28 O13        -11.4100    10.3210     0.3730 oh         1 XTJ      -0.655000
     29 O21        -15.9400    18.0870    -0.7900 os         1 XTJ      -0.455100
     30 O30        -17.0710    17.1230     0.9640 o          1 XTJ      -0.547000
     31 H151       -16.5180    13.6730    -0.9670 hc         1 XTJ       0.060200
     32 H152       -17.5280    14.4650     0.2260 hc         1 XTJ       0.060200
     33 H171       -17.4800    13.4670     2.7730 hc         1 XTJ       0.073700
     34 H172       -16.7520    11.7970     2.9630 hc         1 XTJ       0.073700
     35 H222       -17.7760    19.0970    -0.8280 h1         1 XTJ       0.061200
     36 H221       -16.5800    19.7530     0.3080 h1         1 XTJ       0.061200
     37 H261       -14.9970    22.7450    -4.5210 ha         1 XTJ       0.133000
     38 H041       -11.6740    12.9140     0.9240 h1         1 XTJ       0.093700
     39 H052       -12.8190    11.3110     3.2590 hc         1 XTJ       0.065200
     40 H051       -11.1290    11.4210     2.8110 hc         1 XTJ       0.065200
     41 H061       -12.8560    13.7410     3.8720 hc         1 XTJ       0.093700
     42 H072       -11.2020    14.9250     2.4980 hc         1 XTJ       0.063700
     43 H071        -9.9340    13.7630     2.9120 hc         1 XTJ       0.063700
     44 H082        -9.5450    15.4870     4.6000 h1         1 XTJ       0.042700
     45 H081       -11.2900    15.7830     4.8190 h1         1 XTJ       0.042700
     46 H121       -13.4260    10.4060     0.9110 h1         1 XTJ       0.020700
     47 H141       -15.5070    14.9620     1.6330 h1         1 XTJ       0.073700
     48 H161       -16.0120    11.8180     0.5630 hc         1 XTJ       0.085700
     49 H181       -18.9960    12.6010     0.9530 hc         1 XTJ       0.073700
     50 H182       -18.2680    10.9310     1.1380 hc         1 XTJ       0.073700
     51 H251       -14.1870    22.9950    -2.1710 ha         1 XTJ       0.119000
     52 H291       -17.3660    19.3380    -3.3550 ha         1 XTJ       0.142000
     53 H031       -14.3830    12.9830     2.0920 hn         1 XTJ       0.315500
     54 H091       -10.1340    13.8470     6.4550 hn         1 XTJ       0.323500
     55 H191       -14.7330    16.1580    -0.9230 hn         1 XTJ       0.337500
     56 H1         -12.9820    11.3540    -0.5180 h1         1 XTJ       0.020700
     57 H2         -11.5830     9.5440    -0.2050 ho         1 XTJ       0.448000
     58 H241       -14.9660    21.4170    -0.4140 ha         1 XTJ       0.118000
@<TRIPOS>BOND
     1     1    11 1   
     2     1    24 1   
     3     1    27 2   
     4     2    15 1   
     5     2    16 1   
     6     2    31 1   
     7     2    32 1   
     8     3    16 1   
     9     3    17 1   
    10     3    33 1   
    11     3    34 1   
    12     4    25 1   
    13     4    29 1   
    14     4    30 2   
    15     5    18 1   
    16     5    29 1   
    17     5    35 1   
    18     5    36 1   
    19     6    18 ar  
    20     6    19 ar  
    21     6    58 1   
    22     7    19 ar  
    23     7    20 ar  
    24     7    37 1   
    25     8    15 1   
    26     8    23 1   
    27     8    26 2   
    28     9    10 1   
    29     9    14 1   
    30     9    23 1   
    31     9    38 1   
    32    10    11 1   
    33    10    39 1   
    34    10    40 1   
    35    11    12 1   
    36    11    41 1   
    37    12    13 1   
    38    12    42 1   
    39    12    43 1   
    40    13    24 1   
    41    13    44 1   
    42    13    45 1   
    43    14    28 1   
    44    14    46 1   
    45    14    56 1   
    46    15    25 1   
    47    15    47 1   
    48    16    17 1   
    49    16    48 1   
    50    17    49 1   
    51    17    50 1   
    52    18    21 ar  
    53    19    51 1   
    54    20    21 ar  
    55    20    22 1   
    56    21    52 1   
    57    23    53 1   
    58    24    54 1   
    59    25    55 1   
    60    28    57 1   
@<TRIPOS>SUBSTRUCTURE
     1 XTJ         1 TEMP              0 ****  ****    0 ROOT
