@<TRIPOS>MOLECULE
XTK
   45    46     1     0     0
SMALL
No Charge or Current Charge


@<TRIPOS>ATOM
      1 N3           5.5960    -3.7060    -0.1670 n1         1 XTK      -0.445000
      2 C16          4.9830    -2.7130    -0.1290 cg         1 XTK       0.304700
      3 C1           4.2640    -1.4840    -0.0810 cc         1 XTK      -0.007800
      4 N1           4.8160    -0.1910     0.0320 na         1 XTK      -0.198700
      5 C8           3.8040     0.7590     0.0480 ca         1 XTK       0.003800
      6 C7           3.8980     2.1560     0.1460 ca         1 XTK      -0.138300
      7 C6           2.6900     2.8930     0.1380 ca         1 XTK      -0.037000
      8 C5           1.4400     2.2350     0.0340 ca         1 XTK      -0.247000
      9 C2           2.8930    -1.2820    -0.1330 cd         1 XTK      -0.132200
     10 C3           2.5940     0.1280    -0.0530 ca         1 XTK      -0.143800
     11 C4           1.3800     0.8240    -0.0640 ca         1 XTK       0.206100
     12 O1           0.1990     0.1190    -0.1700 os         1 XTK      -0.318100
     13 C9          -1.0820     0.7790    -0.1830 c3         1 XTK       0.129600
     14 C10         -2.1960    -0.2900    -0.3180 c3         1 XTK       0.169300
     15 O2          -2.2700    -1.1300     0.8430 oh         1 XTK      -0.631000
     16 C11         -3.6050     0.3340    -0.4910 c3         1 XTK       0.127800
     17 N2          -4.6560    -0.6850    -0.1850 n7         1 XTK      -0.864400
     18 C12         -6.0610    -0.2400    -0.0480 c3         1 XTK       0.191200
     19 C15         -6.5260     0.4600    -1.3490 c3         1 XTK      -0.097433
     20 C14         -6.8980    -1.5180     0.1870 c3         1 XTK      -0.097433
     21 C13         -6.2010     0.7040     1.1720 c3         1 XTK      -0.097433
     22 C17          5.2470     2.8540     0.2580 c3         1 XTK      -0.035800
     23 H1           5.8070     0.0150     0.0930 hn         1 XTK       0.361000
     24 H2           2.1540    -2.0750    -0.2210 ha         1 XTK       0.225000
     25 H6           2.7170     3.9780     0.2120 ha         1 XTK       0.109000
     26 H171         5.8730     2.6410    -0.6160 hc         1 XTK       0.039367
     27 H172         5.1350     3.9430     0.3260 hc         1 XTK       0.039367
     28 H173         5.7890     2.5210     1.1510 hc         1 XTK       0.039367
     29 H5           0.5350     2.8360     0.0310 ha         1 XTK       0.116000
     30 H91C        -1.2340     1.3540     0.7400 h1         1 XTK       0.037700
     31 H92C        -1.1440     1.4700    -1.0350 h1         1 XTK       0.037700
     32 H10         -1.9870    -0.8990    -1.2080 h1         1 XTK       0.078700
     33 HA          -3.2490    -1.2630     0.9210 ho         1 XTK       0.446000
     34 H111        -3.6830     1.1880     0.1940 h1         1 XTK       0.034200
     35 H112        -3.7070     0.7190    -1.5140 h1         1 XTK       0.034200
     36 HB          -4.6340    -1.3960    -0.9290 hn         1 XTK       0.416000
     37 H151        -6.3650    -0.1840    -2.2220 hc         1 XTK       0.038367
     38 H152        -7.5950     0.6960    -1.2970 hc         1 XTK       0.038367
     39 H153        -5.9880     1.4010    -1.5130 hc         1 XTK       0.038367
     40 H141        -6.5700    -2.0410     1.0930 hc         1 XTK       0.038367
     41 H142        -7.9600    -1.2720     0.3050 hc         1 XTK       0.038367
     42 H143        -6.8060    -2.2110    -0.6580 hc         1 XTK       0.038367
     43 H131        -5.6920     1.6600     1.0050 hc         1 XTK       0.038367
     44 H132        -7.2570     0.9260     1.3670 hc         1 XTK       0.038367
     45 H133        -5.7810     0.2430     2.0740 hc         1 XTK       0.038367
@<TRIPOS>BOND
     1     1     2 3   
     2     2     3 1   
     3     3     4 1   
     4     3     9 2   
     5     4     5 1   
     6     4    23 1   
     7     5     6 ar  
     8     5    10 ar  
     9     6     7 ar  
    10     6    22 1   
    11     7     8 ar  
    12     7    25 1   
    13     8    11 ar  
    14     8    29 1   
    15     9    10 1   
    16     9    24 1   
    17    10    11 ar  
    18    11    12 1   
    19    12    13 1   
    20    13    14 1   
    21    13    30 1   
    22    13    31 1   
    23    14    15 1   
    24    14    16 1   
    25    14    32 1   
    26    15    33 1   
    27    16    17 1   
    28    16    34 1   
    29    16    35 1   
    30    17    18 1   
    31    17    36 1   
    32    18    19 1   
    33    18    20 1   
    34    18    21 1   
    35    19    37 1   
    36    19    38 1   
    37    19    39 1   
    38    20    40 1   
    39    20    41 1   
    40    20    42 1   
    41    21    43 1   
    42    21    44 1   
    43    21    45 1   
    44    22    26 1   
    45    22    27 1   
    46    22    28 1   
@<TRIPOS>SUBSTRUCTURE
     1 XTK         1 TEMP              0 ****  ****    0 ROOT
