@<TRIPOS>MOLECULE
XTK
   45    46     1     0     0
SMALL
bcc


@<TRIPOS>ATOM
      1 N3           5.6680    -3.5020    -0.1350 n1         1 XTK      -0.355800
      2 C16          5.0080    -2.5570    -0.1100 cg         1 XTK       0.215500
      3 C1           4.1920    -1.4060    -0.0810 cc         1 XTK      -0.007800
      4 N1           4.7200    -0.1400    -0.0390 na         1 XTK      -0.148400
      5 C8           3.7040     0.7600    -0.0180 ca         1 XTK       0.003800
      6 C7           3.7640     2.1640     0.0250 ca         1 XTK      -0.138300
      7 C6           2.5420     2.7950     0.0320 ca         1 XTK      -0.055000
      8 C5           1.3060     2.1110     0.0020 ca         1 XTK      -0.265000
      9 C2           2.8210    -1.3390    -0.0870 cd         1 XTK      -0.082200
     10 C3           2.4950     0.0380    -0.0460 ca         1 XTK      -0.143800
     11 C4           1.2680     0.7330    -0.0360 ca         1 XTK       0.206100
     12 O1           0.1630    -0.0280    -0.0640 os         1 XTK      -0.294900
     13 C9          -1.0960     0.6170    -0.0540 c3         1 XTK       0.106400
     14 C10         -2.1800    -0.4460    -0.0340 c3         1 XTK       0.146100
     15 O2          -2.0880    -1.2540     1.1150 oh         1 XTK      -0.568800
     16 C11         -3.5390     0.2330    -0.1830 c3         1 XTK       0.127800
     17 N2          -4.6140    -0.7330    -0.1320 n7         1 XTK      -0.809200
     18 C12         -5.9820    -0.2020    -0.1610 c3         1 XTK       0.191200
     19 C15         -6.2630     0.6660    -1.3960 c3         1 XTK      -0.097433
     20 C14         -6.9170    -1.4090    -0.1760 c3         1 XTK      -0.097433
     21 C13         -6.2450     0.6100     1.1070 c3         1 XTK      -0.097433
     22 C17          5.0720     2.8910     0.0620 c3         1 XTK      -0.035800
     23 H1           5.7050     0.0750    -0.0300 hn         1 XTK       0.310700
     24 H2           2.1490    -2.1810    -0.1150 ha         1 XTK       0.175000
     25 H6           2.5150     3.8780     0.0620 ha         1 XTK       0.127000
     26 H171         5.6830     2.6740    -0.8170 hc         1 XTK       0.039367
     27 H172         4.9160     3.9680     0.0960 hc         1 XTK       0.039367
     28 H173         5.6620     2.6140     0.9390 hc         1 XTK       0.039367
     29 H5           0.4000     2.7000     0.0090 ha         1 XTK       0.134000
     30 H91C        -1.1900     1.2620     0.8290 h1         1 XTK       0.037700
     31 H92C        -1.2060     1.2510    -0.9410 h1         1 XTK       0.037700
     32 H10         -2.0260    -1.1120    -0.8920 h1         1 XTK       0.078700
     33 HA          -2.5950    -0.8390     1.8210 ho         1 XTK       0.407000
     34 H111        -3.6620     0.9460     0.6380 h1         1 XTK       0.034200
     35 H112        -3.5170     0.8310    -1.1050 h1         1 XTK       0.034200
     36 HB          -4.5070    -1.3770    -0.9090 hn         1 XTK       0.360800
     37 H151        -6.0930     0.1020    -2.3160 hc         1 XTK       0.038367
     38 H152        -7.2990     1.0090    -1.4060 hc         1 XTK       0.038367
     39 H153        -5.6270     1.5520    -1.4240 hc         1 XTK       0.038367
     40 H141        -6.7640    -2.0340     0.7060 hc         1 XTK       0.038367
     41 H142        -7.9600    -1.0890    -0.1880 hc         1 XTK       0.038367
     42 H143        -6.7510    -2.0290    -1.0600 hc         1 XTK       0.038367
     43 H131        -5.6550     1.5270     1.1450 hc         1 XTK       0.038367
     44 H132        -7.2950     0.9030     1.1570 hc         1 XTK       0.038367
     45 H133        -6.0150     0.0220     1.9980 hc         1 XTK       0.038367
@<TRIPOS>BOND
     1     1     2 3   
     2     2     3 1   
     3     3     4 1   
     4     3     9 2   
     5     4     5 1   
     6     4    23 1   
     7     5     6 ar  
     8     5    10 ar  
     9     6     7 ar  
    10     6    22 1   
    11     7     8 ar  
    12     7    25 1   
    13     8    11 ar  
    14     8    29 1   
    15     9    10 1   
    16     9    24 1   
    17    10    11 ar  
    18    11    12 1   
    19    12    13 1   
    20    13    14 1   
    21    13    30 1   
    22    13    31 1   
    23    14    15 1   
    24    14    16 1   
    25    14    32 1   
    26    15    33 1   
    27    16    17 1   
    28    16    34 1   
    29    16    35 1   
    30    17    18 1   
    31    17    36 1   
    32    18    19 1   
    33    18    20 1   
    34    18    21 1   
    35    19    37 1   
    36    19    38 1   
    37    19    39 1   
    38    20    40 1   
    39    20    41 1   
    40    20    42 1   
    41    21    43 1   
    42    21    44 1   
    43    21    45 1   
    44    22    26 1   
    45    22    27 1   
    46    22    28 1   
@<TRIPOS>SUBSTRUCTURE
     1 XTK         1 TEMP              0 ****  ****    0 ROOT
