@<TRIPOS>MOLECULE
XTM
   60    61     1     0     0
SMALL
No Charge or Current Charge


@<TRIPOS>ATOM
      1 C10        -12.6700    -9.9700    -6.6840 c          1 XTM       0.560000
      2 C15        -16.0990   -11.4410    -0.5240 c3         1 XTM      -0.081400
      3 C17        -16.9200   -10.9020     1.8340 c3         1 XTM      -0.090100
      4 C20        -17.7700   -10.2730    -3.6820 c          1 XTM       0.629100
      5 C22        -19.6060    -9.9030    -5.1920 c3         1 XTM       0.223900
      6 C24        -18.6530    -9.7830    -7.5540 ca         1 XTM      -0.124000
      7 C26        -17.8910   -11.7700    -8.7360 ca         1 XTM      -0.151000
      8 C02        -15.2600   -12.1810    -2.8330 c          1 XTM       0.575100
      9 C04        -12.9620   -12.6700    -3.7550 c3         1 XTM       0.102700
     10 C05        -12.3240   -11.7120    -4.7970 c3         1 XTM      -0.070400
     11 C06        -13.3350   -10.8790    -5.6420 c5         1 XTM      -0.155700
     12 C07        -14.3320   -11.7070    -6.5020 c5         1 XTM      -0.088400
     13 C08        -14.7850   -10.6500    -7.5450 c5         1 XTM       0.099000
     14 C12        -11.9200   -13.4270    -2.8890 c3         1 XTM       0.151600
     15 C14        -16.0740   -11.1200    -2.0410 c3         1 XTM       0.047700
     16 C18        -16.3030    -8.9900     0.2710 c3         1 XTM      -0.090100
     17 C23        -18.9950   -10.5650    -6.4310 ca         1 XTM      -0.086300
     18 C25        -18.1060   -10.3820    -8.7030 ca         1 XTM      -0.086000
     19 C27        -18.2250   -12.5530    -7.6200 ca         1 XTM       0.168000
     20 C29        -18.7790   -11.9600    -6.4750 ca         1 XTM      -0.129000
     21 F28        -18.0160   -13.8870    -7.6510 f          1 XTM      -0.179000
     22 N03        -13.9050   -11.9320    -2.9040 ns         1 XTM      -0.496900
     23 N09        -13.5380    -9.9130    -7.7400 ns         1 XTM      -0.512900
     24 N19        -17.4380   -11.0270    -2.5940 ns         1 XTM      -0.469900
     25 O01        -15.7710   -13.1520    -3.3780 o          1 XTM      -0.606100
     26 O11        -11.5260    -9.5510    -6.7370 o          1 XTM      -0.571000
     27 O13        -11.0800   -14.2640    -3.7000 oh         1 XTM      -0.662000
     28 O21        -19.0750   -10.5030    -3.9940 os         1 XTM      -0.455100
     29 O30        -17.0070    -9.5260    -4.2740 o          1 XTM      -0.538000
     30 H151       -16.5390   -12.4380    -0.3890 hc         1 XTM       0.057700
     31 H152       -15.0660   -11.5110    -0.1620 hc         1 XTM       0.057700
     32 H172       -17.5140   -10.2140     2.4470 hc         1 XTM       0.036367
     33 H171       -17.3770   -11.8970     1.9060 hc         1 XTM       0.036367
     34 H173       -15.9110   -10.9570     2.2590 hc         1 XTM       0.036367
     35 H222       -19.4130    -8.8220    -5.2050 h1         1 XTM       0.075700
     36 H221       -20.6940   -10.0390    -5.2280 h1         1 XTM       0.075700
     37 H261       -17.4670   -12.2390    -9.6200 ha         1 XTM       0.134000
     38 H041       -13.5190   -13.4330    -4.3150 h1         1 XTM       0.096700
     39 H051       -11.6900   -12.2990    -5.4720 hc         1 XTM       0.065700
     40 H052       -11.6490   -11.0270    -4.2690 hc         1 XTM       0.065700
     41 H061       -13.9190   -10.2230    -4.9870 hc         1 XTM       0.090700
     42 H071       -15.1720   -12.1130    -5.9280 hc         1 XTM       0.064700
     43 H072       -13.8310   -12.5490    -6.9950 hc         1 XTM       0.064700
     44 H082       -15.5740   -10.0010    -7.1420 h1         1 XTM       0.046700
     45 H081       -15.1520   -11.1150    -8.4690 h1         1 XTM       0.046700
     46 H121       -11.3120   -12.6980    -2.3370 h1         1 XTM       0.026200
     47 H141       -15.5710   -10.1560    -2.1920 h1         1 XTM       0.078700
     48 H183       -16.8450    -8.3140     0.9430 hc         1 XTM       0.036367
     49 H182       -15.2430    -8.9720     0.5520 hc         1 XTM       0.036367
     50 H181       -16.4000    -8.5900    -0.7450 hc         1 XTM       0.036367
     51 H251       -17.8470    -9.7700    -9.5640 ha         1 XTM       0.119000
     52 H291       -19.0380   -12.5850    -5.6250 ha         1 XTM       0.147000
     53 H031       -13.5650   -11.1130    -2.4130 hn         1 XTM       0.314500
     54 H091       -13.2550    -9.4280    -8.5830 hn         1 XTM       0.323500
     55 H191       -18.1680   -11.6230    -2.2260 hn         1 XTM       0.333500
     56 H1         -12.4540   -14.0400    -2.1500 h1         1 XTM       0.026200
     57 H2         -10.4510   -14.7150    -3.0930 ho         1 XTM       0.447000
     58 C16        -16.8750   -10.4250     0.3640 c3         1 XTM      -0.061700
     59 H241       -18.8150    -8.7070    -7.5390 ha         1 XTM       0.118000
     60 H161       -17.9130   -10.3870     0.0120 hc         1 XTM       0.051700
@<TRIPOS>BOND
     1     1    11 1   
     2     1    23 1   
     3     1    26 2   
     4     2    15 1   
     5     2    30 1   
     6     2    31 1   
     7     2    58 1   
     8     3    32 1   
     9     3    33 1   
    10     3    34 1   
    11     3    58 1   
    12     4    24 1   
    13     4    28 1   
    14     4    29 2   
    15     5    17 1   
    16     5    28 1   
    17     5    35 1   
    18     5    36 1   
    19     6    17 ar  
    20     6    18 ar  
    21     6    59 1   
    22     7    18 ar  
    23     7    19 ar  
    24     7    37 1   
    25     8    15 1   
    26     8    22 1   
    27     8    25 2   
    28     9    10 1   
    29     9    14 1   
    30     9    22 1   
    31     9    38 1   
    32    10    11 1   
    33    10    39 1   
    34    10    40 1   
    35    11    12 1   
    36    11    41 1   
    37    12    13 1   
    38    12    42 1   
    39    12    43 1   
    40    13    23 1   
    41    13    44 1   
    42    13    45 1   
    43    14    27 1   
    44    14    46 1   
    45    14    56 1   
    46    15    24 1   
    47    15    47 1   
    48    16    48 1   
    49    16    49 1   
    50    16    50 1   
    51    16    58 1   
    52    17    20 ar  
    53    18    51 1   
    54    19    20 ar  
    55    19    21 1   
    56    20    52 1   
    57    22    53 1   
    58    23    54 1   
    59    24    55 1   
    60    27    57 1   
    61    58    60 1   
@<TRIPOS>SUBSTRUCTURE
     1 XTM         1 TEMP              0 ****  ****    0 ROOT
