@<TRIPOS>MOLECULE
XTM
   60    61     1     0     0
SMALL
abcg2


@<TRIPOS>ATOM
      1 C10        -12.9620   -10.0110    -6.8050 c          1 XTM       0.560000
      2 C15        -16.2220   -11.5230    -0.5010 c3         1 XTM      -0.081400
      3 C17        -17.1030   -11.3790     1.8350 c3         1 XTM      -0.090100
      4 C20        -17.4360   -10.0060    -3.6760 c          1 XTM       0.629100
      5 C22        -18.9340    -9.4530    -5.4330 c3         1 XTM       0.223900
      6 C24        -18.6770    -9.9130    -7.8760 ca         1 XTM      -0.124000
      7 C26        -18.1220   -12.0980    -8.7420 ca         1 XTM      -0.151000
      8 C02        -15.2880   -11.9160    -2.7910 c          1 XTM       0.575100
      9 C04        -13.0680   -12.4410    -3.7410 c3         1 XTM       0.102700
     10 C05        -12.4850   -11.5560    -4.8450 c3         1 XTM      -0.070400
     11 C06        -13.5490   -10.9150    -5.7250 c5         1 XTM      -0.155700
     12 C07        -14.4480   -11.8770    -6.5160 c5         1 XTM      -0.088400
     13 C08        -14.8340   -11.0760    -7.7670 c5         1 XTM       0.099000
     14 C12        -11.9890   -13.0840    -2.8760 c3         1 XTM       0.151600
     15 C14        -16.0560   -10.9260    -1.9010 c3         1 XTM       0.047700
     16 C18        -16.1870    -9.3030     0.7420 c3         1 XTM      -0.090100
     17 C23        -18.6250   -10.3970    -6.5680 ca         1 XTM      -0.086300
     18 C25        -18.4330   -10.7570    -8.9510 ca         1 XTM      -0.086000
     19 C27        -18.0700   -12.5480    -7.4380 ca         1 XTM       0.168000
     20 C29        -18.3170   -11.7360    -6.3460 ca         1 XTM      -0.129000
     21 F28        -17.7540   -13.8500    -7.2090 f          1 XTM      -0.179000
     22 N03        -13.9700   -11.6760    -2.8930 ns         1 XTM      -0.496900
     23 N09        -13.6940   -10.1770    -7.9230 ns         1 XTM      -0.512900
     24 N19        -17.3500   -10.6290    -2.4820 ns         1 XTM      -0.469900
     25 O01        -15.8600   -12.8590    -3.3320 o          1 XTM      -0.606100
     26 O11        -12.0040    -9.2490    -6.6780 o          1 XTM      -0.571000
     27 O13        -11.2060   -13.9450    -3.7010 oh         1 XTM      -0.662000
     28 O21        -18.7090   -10.0310    -4.1410 os         1 XTM      -0.455100
     29 O30        -16.5060    -9.4750    -4.2580 o          1 XTM      -0.538000
     30 H151       -16.7680   -12.4660    -0.5930 hc         1 XTM       0.057700
     31 H152       -15.2240   -11.7690    -0.1260 hc         1 XTM       0.057700
     32 H172       -17.6450   -10.7740     2.5650 hc         1 XTM       0.036367
     33 H171       -17.6570   -12.3090     1.6850 hc         1 XTM       0.036367
     34 H173       -16.1290   -11.6320     2.2640 hc         1 XTM       0.036367
     35 H222       -18.3530    -8.5370    -5.5350 h1         1 XTM       0.075700
     36 H221       -19.9930    -9.1940    -5.4380 h1         1 XTM       0.075700
     37 H261       -17.9160   -12.7720    -9.5620 ha         1 XTM       0.134000
     38 H041       -13.6680   -13.2360    -4.1830 h1         1 XTM       0.096700
     39 H051       -11.8180   -12.1660    -5.4570 hc         1 XTM       0.065700
     40 H052       -11.8760   -10.7710    -4.3880 hc         1 XTM       0.065700
     41 H061       -14.1810   -10.2630    -5.1120 hc         1 XTM       0.090700
     42 H071       -15.3170   -12.2050    -5.9530 hc         1 XTM       0.064700
     43 H072       -13.8730   -12.7600    -6.8070 hc         1 XTM       0.064700
     44 H082       -15.7550   -10.5080    -7.6140 h1         1 XTM       0.046700
     45 H081       -14.9600   -11.7000    -8.6500 h1         1 XTM       0.046700
     46 H121       -11.3650   -12.3040    -2.4230 h1         1 XTM       0.026200
     47 H141       -15.4890    -9.9970    -1.8420 h1         1 XTM       0.078700
     48 H183       -16.6930    -8.7030     1.5010 hc         1 XTM       0.036367
     49 H182       -15.1660    -9.4920     1.0880 hc         1 XTM       0.036367
     50 H181       -16.1290    -8.7040    -0.1690 hc         1 XTM       0.036367
     51 H251       -18.4740   -10.3710    -9.9620 ha         1 XTM       0.119000
     52 H291       -18.2620   -12.1480    -5.3490 ha         1 XTM       0.147000
     53 H031       -13.6080   -10.8330    -2.4700 hn         1 XTM       0.314500
     54 H091       -13.5700    -9.5810    -8.7280 hn         1 XTM       0.323500
     55 H191       -18.1440   -11.1790    -2.1910 hn         1 XTM       0.333500
     56 H1         -12.4710   -13.6490    -2.0720 h1         1 XTM       0.026200
     57 H2         -10.4740   -14.2890    -3.1750 ho         1 XTM       0.447000
     58 C16        -16.9300   -10.6200     0.5170 c3         1 XTM      -0.061700
     59 H241       -18.9090    -8.8690    -8.0520 ha         1 XTM       0.118000
     60 H161       -17.9280   -10.3870     0.1320 hc         1 XTM       0.051700
@<TRIPOS>BOND
     1     1    11 1   
     2     1    23 1   
     3     1    26 2   
     4     2    15 1   
     5     2    30 1   
     6     2    31 1   
     7     2    58 1   
     8     3    32 1   
     9     3    33 1   
    10     3    34 1   
    11     3    58 1   
    12     4    24 1   
    13     4    28 1   
    14     4    29 2   
    15     5    17 1   
    16     5    28 1   
    17     5    35 1   
    18     5    36 1   
    19     6    17 ar  
    20     6    18 ar  
    21     6    59 1   
    22     7    18 ar  
    23     7    19 ar  
    24     7    37 1   
    25     8    15 1   
    26     8    22 1   
    27     8    25 2   
    28     9    10 1   
    29     9    14 1   
    30     9    22 1   
    31     9    38 1   
    32    10    11 1   
    33    10    39 1   
    34    10    40 1   
    35    11    12 1   
    36    11    41 1   
    37    12    13 1   
    38    12    42 1   
    39    12    43 1   
    40    13    23 1   
    41    13    44 1   
    42    13    45 1   
    43    14    27 1   
    44    14    46 1   
    45    14    56 1   
    46    15    24 1   
    47    15    47 1   
    48    16    48 1   
    49    16    49 1   
    50    16    50 1   
    51    16    58 1   
    52    17    20 ar  
    53    18    51 1   
    54    19    20 ar  
    55    19    21 1   
    56    20    52 1   
    57    22    53 1   
    58    23    54 1   
    59    24    55 1   
    60    27    57 1   
    61    58    60 1   
@<TRIPOS>SUBSTRUCTURE
     1 XTM         1 TEMP              0 ****  ****    0 ROOT
