@<TRIPOS>MOLECULE
XTN
   18    19     1     0     0
SMALL
abcg2


@<TRIPOS>ATOM
      1 N1          -1.3350    -1.3220     0.0060 na         1 XTN      -0.769200
      2 C2          -2.3430    -0.4200     0.0280 cc         1 XTN       0.923100
      3 N2          -3.5910    -0.8900     0.0290 nv         1 XTN      -1.058200
      4 N3          -2.1480     0.8780     0.0510 nd         1 XTN      -0.791100
      5 C4          -0.9000     1.4020     0.0540 c          1 XTN       0.739700
      6 O4          -0.6700     2.6040     0.0760 o          1 XTN      -0.557100
      7 N5           1.5040     0.8660     0.0270 ns         1 XTN      -0.325100
      8 C6           2.5730     0.0170     0.0090 c          1 XTN       0.416700
      9 O6           3.7340     0.3900     0.0070 o          1 XTN      -0.524000
     10 C7           2.1670    -1.3960    -0.0100 cc         1 XTN       0.386200
     11 N8           0.9520    -1.8190    -0.0130 nd         1 XTN      -0.535300
     12 C4A          0.2120     0.4430     0.0270 cc         1 XTN      -0.107600
     13 C8A         -0.0320    -0.8910     0.0050 cd         1 XTN       0.235600
     14 HN1         -1.5020    -2.3160    -0.0110 hn         1 XTN       0.519000
     15 HN2         -3.8170    -1.8670     0.0090 hn         1 XTN       0.514000
     16 HN2A        -4.3550    -0.2410     0.0440 hn         1 XTN       0.514000
     17 H7           2.9650    -2.1300    -0.0140 h4         1 XTN       0.058800
     18 H5           1.6690     1.8650     0.0430 hn         1 XTN       0.360500
@<TRIPOS>BOND
     1     1     2 1   
     2     1    13 1   
     3     1    14 1   
     4     2     3 1   
     5     2     4 2   
     6     3    15 1   
     7     3    16 1   
     8     4     5 1   
     9     5     6 2   
    10     5    12 1   
    11     7     8 1   
    12     7    12 1   
    13     7    18 1   
    14     8     9 2   
    15     8    10 1   
    16    10    11 2   
    17    10    17 1   
    18    11    13 1   
    19    12    13 2   
@<TRIPOS>SUBSTRUCTURE
     1 XTN         1 TEMP              0 ****  ****    0 ROOT
