@<TRIPOS>MOLECULE
XTN
   18    19     1     0     0
SMALL
No Charge or Current Charge


@<TRIPOS>ATOM
      1 N1          -1.3690    -1.3260     0.1100 na         1 XTN      -0.769200
      2 C2          -2.3820    -0.4430     0.1230 cc         1 XTN       0.923100
      3 N2          -3.5930    -0.9100     0.1560 nv         1 XTN      -1.058200
      4 N3          -2.1840     0.8260     0.1150 nd         1 XTN      -0.791100
      5 C4          -0.9030     1.3520     0.0740 c          1 XTN       0.739700
      6 O4          -0.7570     2.5660     0.0660 o          1 XTN      -0.557100
      7 N5           1.5140     0.8760    -0.0070 ns         1 XTN      -0.325100
      8 C6           2.6000     0.0440    -0.0340 c          1 XTN       0.416700
      9 O6           3.7470     0.4730    -0.0760 o          1 XTN      -0.524000
     10 C7           2.1950    -1.3960    -0.0070 cc         1 XTN       0.386200
     11 N8           0.9560    -1.9220     0.0390 nd         1 XTN      -0.535300
     12 C4A          0.2110     0.3910     0.0390 cc         1 XTN      -0.107600
     13 C8A         -0.0470    -0.9640     0.0580 cd         1 XTN       0.235600
     14 HN1         -1.6090    -2.3020     0.1710 hn         1 XTN       0.519000
     15 HN2         -3.7450    -1.7060    -0.4470 hn         1 XTN       0.514000
     16 HN2A        -4.2730    -0.1730     0.0330 hn         1 XTN       0.514000
     17 H7           3.0250    -2.0880    -0.0260 h4         1 XTN       0.058800
     18 H5           1.6980     1.8750    -0.0210 hn         1 XTN       0.360500
@<TRIPOS>BOND
     1     1     2 1   
     2     1    13 1   
     3     1    14 1   
     4     2     3 1   
     5     2     4 2   
     6     3    15 1   
     7     3    16 1   
     8     4     5 1   
     9     5     6 2   
    10     5    12 1   
    11     7     8 1   
    12     7    12 1   
    13     7    18 1   
    14     8     9 2   
    15     8    10 1   
    16    10    11 2   
    17    10    17 1   
    18    11    13 1   
    19    12    13 2   
@<TRIPOS>SUBSTRUCTURE
     1 XTN         1 TEMP              0 ****  ****    0 ROOT
