@<TRIPOS>MOLECULE
XTP
   58    60     1     0     0
SMALL
No Charge or Current Charge


@<TRIPOS>ATOM
      1 C10        -11.3020    15.1150     4.6480 c          1 XTP       0.564000
      2 C15        -16.5070    12.8970     0.1480 c3         1 XTP      -0.057400
      3 C17        -18.4510    14.1980    -1.0990 cx         1 XTP      -0.128400
      4 C20        -14.8670    16.2820     0.1100 c          1 XTP       0.636100
      5 C22        -14.2850    18.4210    -0.8250 c3         1 XTP       0.229900
      6 C24        -12.1420    19.1570     0.3410 ca         1 XTP      -0.094000
      7 C26         -9.9740    18.2180    -0.2480 ca         1 XTP      -0.112000
      8 C28        -11.9830    17.4610    -1.3950 ca         1 XTP      -0.094000
      9 C02        -14.0310    13.2000     0.7330 c          1 XTP       0.585100
     10 C04        -12.4740    12.0580     2.3600 c3         1 XTP       0.104700
     11 C05        -11.9320    12.8350     3.5900 c3         1 XTP      -0.069400
     12 C06        -11.8790    14.3840     3.4290 c5         1 XTP      -0.156700
     13 C07        -10.9890    14.9080     2.2670 c5         1 XTP      -0.089400
     14 C08        -10.7530    16.3780     2.7050 c5         1 XTP       0.098000
     15 C12        -12.5730    10.5260     2.5890 c3         1 XTP       0.150600
     16 C14        -15.4200    13.8900     0.6260 c3         1 XTP       0.049700
     17 C16        -17.9120    13.4970     0.1270 cx         1 XTP      -0.128700
     18 C18        -19.0140    12.8570    -0.6850 cx         1 XTP      -0.128400
     19 C23        -12.7700    18.3380    -0.6200 ca         1 XTP      -0.113300
     20 C25        -10.7500    19.0990     0.5250 ca         1 XTP      -0.112000
     21 C27        -10.5910    17.3980    -1.2060 ca         1 XTP      -0.112000
     22 N03        -13.7750    12.6060     1.9520 ns         1 XTP      -0.499900
     23 N09        -10.6540    16.2140     4.1540 ns         1 XTP      -0.513900
     24 N19        -15.3290    15.0570    -0.2730 ns         1 XTP      -0.473900
     25 O01        -13.2100    13.1950    -0.1770 o          1 XTP      -0.604100
     26 O11        -11.1930    14.7390     5.8040 o          1 XTP      -0.566000
     27 O13        -11.2810     9.9560     2.8500 oh         1 XTP      -0.655000
     28 O21        -14.8390    17.1000    -0.9780 os         1 XTP      -0.452100
     29 O29        -14.5350    16.5790     1.2460 o          1 XTP      -0.537000
     30 H151       -16.5050    12.0260     0.8150 hc         1 XTP       0.059200
     31 H152       -16.2380    12.5210    -0.8470 hc         1 XTP       0.059200
     32 H172       -17.8290    14.2290    -1.9910 hc         1 XTP       0.072700
     33 H171       -19.0710    15.0790    -0.9460 hc         1 XTP       0.072700
     34 H221       -14.4800    19.0140    -1.7280 h1         1 XTP       0.067700
     35 H222       -14.7560    18.9460     0.0170 h1         1 XTP       0.067700
     36 H261        -8.8970    18.1720    -0.1030 ha         1 XTP       0.112000
     37 H281       -12.4500    16.8250    -2.1450 ha         1 XTP       0.118500
     38 H041       -11.7590    12.2090     1.5400 h1         1 XTP       0.093700
     39 H052       -12.5540    12.5860     4.4590 hc         1 XTP       0.064700
     40 H051       -10.9260    12.4640     3.8240 hc         1 XTP       0.064700
     41 H061       -12.8910    14.7790     3.2830 hc         1 XTP       0.092700
     42 H071       -11.4670    14.8380     1.2840 hc         1 XTP       0.063200
     43 H072       -10.0390    14.3620     2.2140 hc         1 XTP       0.063200
     44 H082        -9.8410    16.7990     2.2600 h1         1 XTP       0.047200
     45 H081       -11.6030    17.0190     2.4320 h1         1 XTP       0.047200
     46 H121       -13.2520    10.3290     3.4290 h1         1 XTP       0.021200
     47 H141       -15.6890    14.2450     1.6290 h1         1 XTP       0.075700
     48 H161       -18.2030    13.9080     1.0920 hc         1 XTP       0.081700
     49 H181       -20.0130    12.8370    -0.2560 hc         1 XTP       0.072700
     50 H182       -18.7650    11.9930    -1.2970 hc         1 XTP       0.072700
     51 H251       -10.2730    19.7340     1.2680 ha         1 XTP       0.114500
     52 H271        -9.9920    16.7160    -1.8050 ha         1 XTP       0.114500
     53 H031       -14.5150    12.6460     2.6440 hn         1 XTP       0.314500
     54 H091       -10.1230    16.7990     4.7880 hn         1 XTP       0.322500
     55 H191       -15.5530    14.9500    -1.2540 hn         1 XTP       0.334500
     56 H1         -13.0090    10.0630     1.6930 h1         1 XTP       0.021200
     57 H2         -11.4140     8.9900     2.9780 ho         1 XTP       0.448000
     58 H241       -12.7330    19.8420     0.9460 ha         1 XTP       0.118500
@<TRIPOS>BOND
     1     1    12 1   
     2     1    23 1   
     3     1    26 2   
     4     2    16 1   
     5     2    17 1   
     6     2    30 1   
     7     2    31 1   
     8     3    17 1   
     9     3    18 1   
    10     3    32 1   
    11     3    33 1   
    12     4    24 1   
    13     4    28 1   
    14     4    29 2   
    15     5    19 1   
    16     5    28 1   
    17     5    34 1   
    18     5    35 1   
    19     6    19 ar  
    20     6    20 ar  
    21     6    58 1   
    22     7    20 ar  
    23     7    21 ar  
    24     7    36 1   
    25     8    19 ar  
    26     8    21 ar  
    27     8    37 1   
    28     9    16 1   
    29     9    22 1   
    30     9    25 2   
    31    10    11 1   
    32    10    15 1   
    33    10    22 1   
    34    10    38 1   
    35    11    12 1   
    36    11    39 1   
    37    11    40 1   
    38    12    13 1   
    39    12    41 1   
    40    13    14 1   
    41    13    42 1   
    42    13    43 1   
    43    14    23 1   
    44    14    44 1   
    45    14    45 1   
    46    15    27 1   
    47    15    46 1   
    48    15    56 1   
    49    16    24 1   
    50    16    47 1   
    51    17    18 1   
    52    17    48 1   
    53    18    49 1   
    54    18    50 1   
    55    20    51 1   
    56    21    52 1   
    57    22    53 1   
    58    23    54 1   
    59    24    55 1   
    60    27    57 1   
@<TRIPOS>SUBSTRUCTURE
     1 XTP         1 TEMP              0 ****  ****    0 ROOT
