@<TRIPOS>MOLECULE
XTP
   58    60     1     0     0
SMALL
bcc


@<TRIPOS>ATOM
      1 C10        -11.1960    15.1870     4.5550 c          1 XTP       0.706500
      2 C15        -16.4600    12.8930     0.0430 c3         1 XTP      -0.057400
      3 C17        -18.4480    13.9050    -1.3210 cx         1 XTP      -0.128400
      4 C20        -15.0140    16.2940     0.3780 c          1 XTP       0.752100
      5 C22        -14.2820    18.4350    -0.2760 c3         1 XTP       0.206700
      6 C24        -11.9810    19.1930     0.3170 ca         1 XTP      -0.112000
      7 C26        -10.0010    18.0590    -0.4440 ca         1 XTP      -0.130000
      8 C28        -12.1840    17.2090    -1.0130 ca         1 XTP      -0.112000
      9 C02        -14.1710    13.4890     0.8250 c          1 XTP       0.652100
     10 C04        -12.5860    12.3100     2.3140 c3         1 XTP       0.104700
     11 C05        -11.9790    13.0050     3.5320 c3         1 XTP      -0.069400
     12 C06        -11.7770    14.4970     3.3300 c5         1 XTP      -0.156700
     13 C07        -10.8070    14.8920     2.2160 c5         1 XTP      -0.089400
     14 C08        -10.2570    16.2410     2.6780 c5         1 XTP       0.098000
     15 C12        -12.7710    10.8100     2.5280 c3         1 XTP       0.127400
     16 C14        -15.6180    13.9810     0.7140 c3         1 XTP       0.049700
     17 C16        -17.9170    13.2540    -0.0790 cx         1 XTP      -0.128700
     18 C18        -18.7890    12.4780    -1.0160 cx         1 XTP      -0.128400
     19 C23        -12.7880    18.2510    -0.3170 ca         1 XTP      -0.113300
     20 C25        -10.5990    19.1040     0.2490 ca         1 XTP      -0.130000
     21 C27        -10.7990    17.1110    -1.0690 ca         1 XTP      -0.130000
     22 N03        -13.8730    12.8880     1.9860 ns         1 XTP      -0.566900
     23 N09        -10.3350    16.1230     4.1190 ns         1 XTP      -0.580900
     24 N19        -15.6720    15.2000    -0.0490 ns         1 XTP      -0.540900
     25 O01        -13.3950    13.6110    -0.1100 o          1 XTP      -0.604100
     26 O11        -11.4710    14.9480     5.7200 o          1 XTP      -0.641500
     27 O13        -11.5140    10.2270     2.7690 oh         1 XTP      -0.592800
     28 O21        -15.0090    17.2500    -0.5610 os         1 XTP      -0.428900
     29 O29        -14.5070    16.4130     1.4730 o          1 XTP      -0.586000
     30 H151       -16.3570    11.9820     0.6380 hc         1 XTP       0.059200
     31 H152       -16.0440    12.6700    -0.9450 hc         1 XTP       0.059200
     32 H172       -17.7580    14.0890    -2.1360 hc         1 XTP       0.072700
     33 H171       -19.2220    14.6540    -1.2180 hc         1 XTP       0.072700
     34 H221       -14.5890    19.1370    -1.0530 h1         1 XTP       0.067700
     35 H222       -14.5860    18.8610     0.6830 h1         1 XTP       0.067700
     36 H261        -8.9230    17.9820    -0.4910 ha         1 XTP       0.130000
     37 H281       -12.7840    16.4620    -1.5170 ha         1 XTP       0.136500
     38 H041       -11.9380    12.4580     1.4480 h1         1 XTP       0.093700
     39 H052       -12.6270    12.8370     4.3980 hc         1 XTP       0.064700
     40 H051       -11.0200    12.5360     3.7620 hc         1 XTP       0.064700
     41 H061       -12.7460    14.9760     3.1430 hc         1 XTP       0.092700
     42 H071       -11.2770    14.9530     1.2370 hc         1 XTP       0.063200
     43 H072        -9.9960    14.1610     2.1540 hc         1 XTP       0.063200
     44 H082        -9.2320    16.4140     2.3520 h1         1 XTP       0.047200
     45 H081       -10.8680    17.0710     2.3120 h1         1 XTP       0.047200
     46 H121       -13.4630    10.6550     3.3670 h1         1 XTP       0.021200
     47 H141       -16.0270    14.1640     1.7130 h1         1 XTP       0.075700
     48 H161       -18.3830    13.5610     0.8530 hc         1 XTP       0.081700
     49 H181       -19.7990    12.2450    -0.7030 hc         1 XTP       0.072700
     50 H182       -18.3230    11.7080    -1.6190 hc         1 XTP       0.072700
     51 H251        -9.9880    19.8450     0.7490 ha         1 XTP       0.132500
     52 H271       -10.3440    16.2900    -1.6070 ha         1 XTP       0.132500
     53 H031       -14.5720    12.8840     2.7140 hn         1 XTP       0.314500
     54 H091        -9.9160    16.7950     4.7430 hn         1 XTP       0.322500
     55 H191       -15.9390    15.1470    -1.0190 hn         1 XTP       0.334500
     56 H1         -13.2500    10.3900     1.6340 h1         1 XTP       0.021200
     57 H2         -11.6440     9.2960     2.9670 ho         1 XTP       0.409000
     58 H241       -12.4390    20.0050     0.8720 ha         1 XTP       0.136500
@<TRIPOS>BOND
     1     1    12 1   
     2     1    23 1   
     3     1    26 2   
     4     2    16 1   
     5     2    17 1   
     6     2    30 1   
     7     2    31 1   
     8     3    17 1   
     9     3    18 1   
    10     3    32 1   
    11     3    33 1   
    12     4    24 1   
    13     4    28 1   
    14     4    29 2   
    15     5    19 1   
    16     5    28 1   
    17     5    34 1   
    18     5    35 1   
    19     6    19 ar  
    20     6    20 ar  
    21     6    58 1   
    22     7    20 ar  
    23     7    21 ar  
    24     7    36 1   
    25     8    19 ar  
    26     8    21 ar  
    27     8    37 1   
    28     9    16 1   
    29     9    22 1   
    30     9    25 2   
    31    10    11 1   
    32    10    15 1   
    33    10    22 1   
    34    10    38 1   
    35    11    12 1   
    36    11    39 1   
    37    11    40 1   
    38    12    13 1   
    39    12    41 1   
    40    13    14 1   
    41    13    42 1   
    42    13    43 1   
    43    14    23 1   
    44    14    44 1   
    45    14    45 1   
    46    15    27 1   
    47    15    46 1   
    48    15    56 1   
    49    16    24 1   
    50    16    47 1   
    51    17    18 1   
    52    17    48 1   
    53    18    49 1   
    54    18    50 1   
    55    20    51 1   
    56    21    52 1   
    57    22    53 1   
    58    23    54 1   
    59    24    55 1   
    60    27    57 1   
@<TRIPOS>SUBSTRUCTURE
     1 XTP         1 TEMP              0 ****  ****    0 ROOT
