@<TRIPOS>MOLECULE
XTT
   35    38     1     0     0
SMALL
abcg2


@<TRIPOS>ATOM
      1 C10          8.6810    18.5120    -2.4920 cc         1 XTT       0.397400
      2 C13         -0.4650    21.6570    -0.1520 c          1 XTT       0.594000
      3 C01          2.4710    18.3570    -0.5960 c6         1 XTT       0.221800
      4 C02          3.0600    17.0030    -0.2270 c6         1 XTT       0.012600
      5 C03          3.6550    22.5940     1.2210 ca         1 XTT       0.162900
      6 C04          1.5080    22.3690     0.7150 ca         1 XTT       0.204900
      7 C05          1.7370    21.1260     0.1110 ca         1 XTT      -0.148400
      8 C06          3.0470    20.6430     0.1330 ca         1 XTT       0.390900
      9 C07          5.3400    18.0930    -1.1710 ce         1 XTT       0.018400
     10 C08          4.7810    19.2330    -0.7210 c2         1 XTT       0.021000
     11 C09          6.7360    18.0080    -1.5740 cc         1 XTT      -0.152800
     12 C11          7.6570    16.9980    -1.3770 cd         1 XTT       0.259900
     13 N01          3.4440    19.4320    -0.3970 nh         1 XTT      -0.657100
     14 N02          3.9930    21.4260     0.6940 nb         1 XTT      -0.245000
     15 N03          2.4320    23.1300     1.2870 nb         1 XTT      -0.196000
     16 N04          0.1760    22.6600     0.5620 ns         1 XTT      -0.580900
     17 N05          0.5120    20.7170    -0.4100 ns         1 XTT      -0.500600
     18 N06          7.4170    18.9710    -2.3060 na         1 XTT      -0.171500
     19 N07          8.8630    17.3250    -1.9460 nd         1 XTT      -0.672000
     20 S01          4.4600    16.5620    -1.2890 ss         1 XTT      -0.278600
     21 H1           9.4170    19.0820    -3.0380 h5         1 XTT       0.054100
     22 H2           2.1170    18.3430    -1.6290 h1         1 XTT       0.061200
     23 H3           1.6280    18.5390     0.0670 h1         1 XTT       0.061200
     24 H4           2.3080    16.2280    -0.3680 h1         1 XTT       0.087200
     25 H5           3.3810    17.0000     0.8140 h1         1 XTT       0.087200
     26 H6           4.4600    23.1760     1.6560 h5         1 XTT       0.060100
     27 H8           5.3900    20.1090    -0.5820 h4         1 XTT       0.226000
     28 H10          7.5040    16.0720    -0.8480 h4         1 XTT       0.046100
     29 H11          5.8940    20.0580    -3.2380 h1         1 XTT       0.054700
     30 H12          6.8710    21.0000    -2.0950 h1         1 XTT       0.054700
     31 H13          7.5520    20.5300    -3.6640 h1         1 XTT       0.054700
     32 H14         -0.2850    23.5010     0.8730 hn         1 XTT       0.485000
     33 H15          0.3250    19.9090    -0.9800 hn         1 XTT       0.471000
     34 C12          6.8990    20.2170    -2.8520 c3         1 XTT       0.058900
     35 O01         -1.6410    21.6170    -0.4800 o          1 XTT      -0.543000
@<TRIPOS>BOND
     1     1    18 1   
     2     1    19 2   
     3     1    21 1   
     4     2    16 1   
     5     2    17 1   
     6     2    35 2   
     7     3     4 1   
     8     3    13 1   
     9     3    22 1   
    10     3    23 1   
    11     4    20 1   
    12     4    24 1   
    13     4    25 1   
    14     5    14 ar  
    15     5    15 ar  
    16     5    26 1   
    17     6     7 ar  
    18     6    15 ar  
    19     6    16 1   
    20     7     8 ar  
    21     7    17 1   
    22     8    13 1   
    23     8    14 ar  
    24     9    10 2   
    25     9    11 1   
    26     9    20 1   
    27    10    13 1   
    28    10    27 1   
    29    11    12 2   
    30    11    18 1   
    31    12    19 1   
    32    12    28 1   
    33    16    32 1   
    34    17    33 1   
    35    18    34 1   
    36    29    34 1   
    37    30    34 1   
    38    31    34 1   
@<TRIPOS>SUBSTRUCTURE
     1 XTT         1 TEMP              0 ****  ****    0 ROOT
