@<TRIPOS>MOLECULE
XTT
   35    38     1     0     0
SMALL
No Charge or Current Charge


@<TRIPOS>ATOM
      1 C10          8.6740    18.5070    -2.6640 cc         1 XTT       0.397400
      2 C13         -0.3950    21.8060    -0.5260 c          1 XTT       0.594000
      3 C01          2.4840    18.2590    -0.3390 c6         1 XTT       0.221800
      4 C02          3.1550    16.9390     0.0770 c6         1 XTT       0.012600
      5 C03          3.5050    22.4720     1.6360 ca         1 XTT       0.162900
      6 C04          1.4630    22.3670     0.7190 ca         1 XTT       0.204900
      7 C05          1.7550    21.1750     0.1110 ca         1 XTT      -0.148400
      8 C06          3.0290    20.6090     0.3130 ca         1 XTT       0.390900
      9 C07          5.3330    18.0880    -1.2100 ce         1 XTT       0.018400
     10 C08          4.7490    19.2450    -0.7970 c2         1 XTT       0.021000
     11 C09          6.7020    18.0140    -1.7370 cc         1 XTT      -0.152800
     12 C11          7.5970    16.9750    -1.6110 cd         1 XTT       0.259900
     13 N01          3.4540    19.3850    -0.2620 nh         1 XTT      -0.657100
     14 N02          3.9140    21.2890     1.0890 nb         1 XTT      -0.245000
     15 N03          2.2940    23.0720     1.4900 nb         1 XTT      -0.196000
     16 N04          0.1710    22.7130     0.3270 ns         1 XTT      -0.580900
     17 N05          0.5930    20.8600    -0.6410 ns         1 XTT      -0.500600
     18 N06          7.4060    18.9970    -2.4220 na         1 XTT      -0.171500
     19 N07          8.8130    17.2830    -2.1830 nd         1 XTT      -0.672000
     20 S01          4.5410    16.4860    -1.0520 ss         1 XTT      -0.278600
     21 H1           9.4250    19.0780    -3.1970 h5         1 XTT       0.054100
     22 H2           2.1030    18.1590    -1.3650 h1         1 XTT       0.061200
     23 H3           1.6230    18.4390     0.3210 h1         1 XTT       0.061200
     24 H4           2.4210    16.1210     0.0750 h1         1 XTT       0.087200
     25 H5           3.5570    17.0380     1.0940 h1         1 XTT       0.087200
     26 H6           4.2320    22.9960     2.2540 h5         1 XTT       0.060100
     27 H8           5.3090    20.1790    -0.8500 h4         1 XTT       0.226000
     28 H10          7.4360    16.0210    -1.1210 h4         1 XTT       0.046100
     29 H11          5.8500    20.1930    -3.2150 h1         1 XTT       0.054700
     30 H12          7.0050    21.0530    -2.1440 h1         1 XTT       0.054700
     31 H13          7.4850    20.5960    -3.8020 h1         1 XTT       0.054700
     32 H14         -0.2930    23.5700     0.6050 hn         1 XTT       0.485000
     33 H15          0.5140    20.0830    -1.2900 hn         1 XTT       0.471000
     34 C12          6.9040    20.2880    -2.9230 c3         1 XTT       0.058900
     35 O01         -1.4850    21.8410    -1.0590 o          1 XTT      -0.543000
@<TRIPOS>BOND
     1     1    18 1   
     2     1    19 2   
     3     1    21 1   
     4     2    16 1   
     5     2    17 1   
     6     2    35 2   
     7     3     4 1   
     8     3    13 1   
     9     3    22 1   
    10     3    23 1   
    11     4    20 1   
    12     4    24 1   
    13     4    25 1   
    14     5    14 ar  
    15     5    15 ar  
    16     5    26 1   
    17     6     7 ar  
    18     6    15 ar  
    19     6    16 1   
    20     7     8 ar  
    21     7    17 1   
    22     8    13 1   
    23     8    14 ar  
    24     9    10 2   
    25     9    11 1   
    26     9    20 1   
    27    10    13 1   
    28    10    27 1   
    29    11    12 2   
    30    11    18 1   
    31    12    19 1   
    32    12    28 1   
    33    16    32 1   
    34    17    33 1   
    35    18    34 1   
    36    29    34 1   
    37    30    34 1   
    38    31    34 1   
@<TRIPOS>SUBSTRUCTURE
     1 XTT         1 TEMP              0 ****  ****    0 ROOT
