@<TRIPOS>MOLECULE
XTV
   41    44     1     0     0
SMALL
No Charge or Current Charge


@<TRIPOS>ATOM
      1 NAA          6.0970    -1.4450     0.9150 n1         1 XTV      -0.448000
      2 CAC          5.4420    -0.4960     0.7290 cg         1 XTV       0.332000
      3 CAT          4.6490     0.6810     0.5080 ca         1 XTV      -0.048000
      4 CAF          5.1120     1.9300     0.9670 ca         1 XTV      -0.041000
      5 CAD          4.3450     3.0900     0.7570 ca         1 XTV      -0.142000
      6 CAE          3.1150     3.0100     0.0840 ca         1 XTV      -0.054000
      7 CAG          2.6490     1.7670    -0.3760 ca         1 XTV      -0.181000
      8 CAW          3.4070     0.5990    -0.1580 ca         1 XTV       0.159100
      9 OAQ          2.9510    -0.6180    -0.6230 os         1 XTV      -0.250200
     10 CAV          1.6360    -1.0210    -0.5040 ca         1 XTV       0.003100
     11 CAR          1.0620    -1.8130    -1.5180 ca         1 XTV       0.149100
     12 CAJ         -0.2700    -2.2420    -1.4100 ca         1 XTV      -0.131000
     13 OAB          1.7990    -2.1640    -2.6120 oh         1 XTV      -0.526100
     14 CAI          0.8720    -0.6820     0.6310 ca         1 XTV      -0.078000
     15 CAH         -0.4620    -1.1120     0.7360 ca         1 XTV      -0.111000
     16 CAS         -1.0460    -1.8890    -0.2870 ca         1 XTV      -0.084300
     17 CAN         -2.4960    -2.3630    -0.1820 c3         1 XTV       0.124900
     18 NAY         -3.4360    -1.3240     0.2720 na         1 XTV       0.125800
     19 CAK         -3.8880    -0.2440    -0.4430 cc         1 XTV      -0.212000
     20 NAP         -3.9780    -1.3590     1.5250 nc         1 XTV      -0.206800
     21 NAO         -4.7610    -0.3180     1.6210 nd         1 XTV      -0.355000
     22 CAU         -4.7260     0.3810     0.4340 cd         1 XTV       0.241300
     23 CAX         -5.5000     1.6240     0.1900 cx         1 XTV      -0.146000
     24 CAL         -6.9860     1.5610    -0.0880 cx         1 XTV      -0.125400
     25 CAM         -6.0320     1.9630    -1.1860 cx         1 XTV      -0.125400
     26 H1           6.0660     2.0040     1.4870 ha         1 XTV       0.130000
     27 H2           4.7070     4.0520     1.1130 ha         1 XTV       0.126000
     28 H3           2.5260     3.9090    -0.0830 ha         1 XTV       0.121000
     29 H4           1.7010     1.7110    -0.9050 ha         1 XTV       0.135000
     30 H5          -0.6990    -2.8490    -2.2040 ha         1 XTV       0.133000
     31 H6           2.6940    -1.7770    -2.4940 ho         1 XTV       0.487000
     32 H7           1.3090    -0.0910     1.4330 ha         1 XTV       0.137000
     33 H8          -1.0380    -0.8430     1.6190 ha         1 XTV       0.138000
     34 H9          -2.8410    -2.7230    -1.1590 h1         1 XTV       0.081700
     35 H10         -2.5450    -3.2100     0.5140 h1         1 XTV       0.081700
     36 H11         -3.5920    -0.0170    -1.4570 h4         1 XTV       0.167000
     37 H12         -5.1550     2.4550     0.8000 hc         1 XTV       0.101700
     38 H13         -7.4500     0.5800    -0.1550 hc         1 XTV       0.072200
     39 H14         -7.6160     2.3340     0.3470 hc         1 XTV       0.072200
     40 H15         -6.0200     3.0070    -1.4910 hc         1 XTV       0.072200
     41 H16         -5.8670     1.2530    -1.9940 hc         1 XTV       0.072200
@<TRIPOS>BOND
     1     1     2 3   
     2     2     3 1   
     3     3     4 ar  
     4     3     8 ar  
     5     4     5 ar  
     6     4    26 1   
     7     5     6 ar  
     8     5    27 1   
     9     6     7 ar  
    10     6    28 1   
    11     7     8 ar  
    12     7    29 1   
    13     8     9 1   
    14     9    10 1   
    15    10    11 ar  
    16    10    14 ar  
    17    11    12 ar  
    18    11    13 1   
    19    12    16 ar  
    20    12    30 1   
    21    13    31 1   
    22    14    15 ar  
    23    14    32 1   
    24    15    16 ar  
    25    15    33 1   
    26    16    17 1   
    27    17    18 1   
    28    17    34 1   
    29    17    35 1   
    30    18    19 1   
    31    18    20 1   
    32    19    22 2   
    33    19    36 1   
    34    20    21 2   
    35    21    22 1   
    36    22    23 1   
    37    23    24 1   
    38    23    25 1   
    39    23    37 1   
    40    24    25 1   
    41    24    38 1   
    42    24    39 1   
    43    25    40 1   
    44    25    41 1   
@<TRIPOS>SUBSTRUCTURE
     1 XTV         1 TEMP              0 ****  ****    0 ROOT
