@<TRIPOS>MOLECULE
XTV
   41    44     1     0     0
SMALL
abcg2


@<TRIPOS>ATOM
      1 NAA          6.1820    -1.0410     0.0590 n1         1 XTV      -0.448000
      2 CAC          5.3970    -0.1980     0.0790 cg         1 XTV       0.332000
      3 CAT          4.4420     0.8580     0.1090 ca         1 XTV      -0.048000
      4 CAF          4.8560     2.1810     0.2560 ca         1 XTV      -0.041000
      5 CAD          3.9200     3.1970     0.2870 ca         1 XTV      -0.142000
      6 CAE          2.5710     2.8850     0.1680 ca         1 XTV      -0.054000
      7 CAG          2.1430     1.5740     0.0210 ca         1 XTV      -0.181000
      8 CAW          3.0820     0.5540    -0.0100 ca         1 XTV       0.159100
      9 OAQ          2.7850    -0.7590    -0.1660 os         1 XTV      -0.250200
     10 CAV          1.4730    -1.1710    -0.0810 ca         1 XTV       0.003100
     11 CAR          0.8310    -1.5380    -1.2600 ca         1 XTV       0.149100
     12 CAJ         -0.4820    -1.9980    -1.1860 ca         1 XTV      -0.131000
     13 OAB          1.4200    -1.4690    -2.4640 oh         1 XTV      -0.526100
     14 CAI          0.8320    -1.2620     1.1440 ca         1 XTV      -0.078000
     15 CAH         -0.4730    -1.7160     1.2040 ca         1 XTV      -0.111000
     16 CAS         -1.1340    -2.0830     0.0340 ca         1 XTV      -0.084300
     17 CAN         -2.5600    -2.5630     0.0910 c3         1 XTV       0.124900
     18 NAY         -3.4700    -1.4820     0.4220 na         1 XTV       0.125800
     19 CAK         -3.8940    -0.4870    -0.3760 cc         1 XTV      -0.212000
     20 NAP         -3.9280    -1.3350     1.6490 nc         1 XTV      -0.206800
     21 NAO         -4.6550    -0.2690     1.6740 nd         1 XTV      -0.355000
     22 CAU         -4.6680     0.2960     0.4460 cd         1 XTV       0.241300
     23 CAX         -5.4230     1.5240     0.1570 cx         1 XTV      -0.146000
     24 CAL         -6.1330     1.6850    -1.1600 cx         1 XTV      -0.125400
     25 CAM         -4.9190     2.5020    -0.8680 cx         1 XTV      -0.125400
     26 H1           5.9120     2.3990     0.3470 ha         1 XTV       0.130000
     27 H2           4.2370     4.2240     0.4030 ha         1 XTV       0.126000
     28 H3           1.8310     3.6750     0.1880 ha         1 XTV       0.121000
     29 H4           1.0860     1.3630    -0.0730 ha         1 XTV       0.135000
     30 H5          -0.9850    -2.2880    -2.1010 ha         1 XTV       0.133000
     31 H6           2.3560    -1.2480    -2.3800 ho         1 XTV       0.487000
     32 H7           1.3590    -0.9820     2.0480 ha         1 XTV       0.137000
     33 H8          -0.9720    -1.7910     2.1620 ha         1 XTV       0.138000
     34 H9          -2.8690    -2.9890    -0.8620 h1         1 XTV       0.081700
     35 H10         -2.6880    -3.3280     0.8550 h1         1 XTV       0.081700
     36 H11         -3.6260    -0.4170    -1.4170 h4         1 XTV       0.167000
     37 H12         -5.9140     1.9430     1.0260 hc         1 XTV       0.101700
     38 H13         -6.0460     0.8760    -1.8750 hc         1 XTV       0.072200
     39 H14         -7.0980     2.1750    -1.1540 hc         1 XTV       0.072200
     40 H15         -5.0460     3.5560    -0.6580 hc         1 XTV       0.072200
     41 H16         -3.9990     2.2570    -1.3850 hc         1 XTV       0.072200
@<TRIPOS>BOND
     1     1     2 3   
     2     2     3 1   
     3     3     4 ar  
     4     3     8 ar  
     5     4     5 ar  
     6     4    26 1   
     7     5     6 ar  
     8     5    27 1   
     9     6     7 ar  
    10     6    28 1   
    11     7     8 ar  
    12     7    29 1   
    13     8     9 1   
    14     9    10 1   
    15    10    11 ar  
    16    10    14 ar  
    17    11    12 ar  
    18    11    13 1   
    19    12    16 ar  
    20    12    30 1   
    21    13    31 1   
    22    14    15 ar  
    23    14    32 1   
    24    15    16 ar  
    25    15    33 1   
    26    16    17 1   
    27    17    18 1   
    28    17    34 1   
    29    17    35 1   
    30    18    19 1   
    31    18    20 1   
    32    19    22 2   
    33    19    36 1   
    34    20    21 2   
    35    21    22 1   
    36    22    23 1   
    37    23    24 1   
    38    23    25 1   
    39    23    37 1   
    40    24    25 1   
    41    24    38 1   
    42    24    39 1   
    43    25    40 1   
    44    25    41 1   
@<TRIPOS>SUBSTRUCTURE
     1 XTV         1 TEMP              0 ****  ****    0 ROOT
