@<TRIPOS>MOLECULE
XTW
   40    43     1     0     0
SMALL
No Charge or Current Charge


@<TRIPOS>ATOM
      1 Cl           5.4670     0.6220    -0.7420 cl         1 XTW      -0.182000
      2 CAS          4.4500    -0.7570    -0.3210 ca         1 XTW       0.087000
      3 CAE          4.9170    -2.0580    -0.5770 ca         1 XTW      -0.074000
      4 CAC          4.1200    -3.1700    -0.2480 ca         1 XTW      -0.129000
      5 CAD          2.8580    -2.9830     0.3420 ca         1 XTW      -0.074000
      6 CAF          2.3890    -1.6820     0.6000 ca         1 XTW      -0.167000
      7 CAV          3.1790    -0.5650     0.2590 ca         1 XTW       0.124100
      8 OAP          2.7310     0.7130     0.5210 os         1 XTW      -0.246200
      9 CAU          1.4260     1.1110     0.3080 ca         1 XTW       0.008100
     10 CAQ          0.8380     2.0450     1.1830 ca         1 XTW       0.147100
     11 CAI         -0.4850     2.4690     0.9770 ca         1 XTW      -0.130000
     12 OAA          1.5500     2.5390     2.2380 oh         1 XTW      -0.527100
     13 CAH          0.6890     0.6230    -0.7900 ca         1 XTW      -0.077000
     14 CAG         -0.6350     1.0500    -0.9930 ca         1 XTW      -0.108000
     15 CAR         -1.2350     1.9700    -0.1070 ca         1 XTW      -0.083300
     16 CAM         -2.6740     2.4410    -0.3210 c3         1 XTW       0.127900
     17 NAX         -3.6170     1.3580    -0.6490 na         1 XTW       0.127800
     18 CAJ         -4.1060     0.3980     0.2000 cc         1 XTW      -0.215000
     19 NAO         -4.1240     1.2200    -1.9080 nc         1 XTW      -0.204800
     20 NAN         -4.9210     0.1840    -1.8770 nd         1 XTW      -0.357000
     21 CAT         -4.9290    -0.3370    -0.6020 cd         1 XTW       0.242300
     22 CAW         -5.7290    -1.5230    -0.2050 cx         1 XTW      -0.145000
     23 CAK         -7.2210    -1.4030     0.0170 cx         1 XTW      -0.125900
     24 CAL         -6.3030    -1.6550     1.1890 cx         1 XTW      -0.125900
     25 H1           5.8950    -2.2040    -1.0300 ha         1 XTW       0.132000
     26 H2           4.4830    -4.1770    -0.4460 ha         1 XTW       0.123000
     27 H3           2.2460    -3.8440     0.6030 ha         1 XTW       0.121000
     28 H4           1.4170    -1.5440     1.0660 ha         1 XTW       0.133000
     29 H5          -0.9260     3.1870     1.6640 ha         1 XTW       0.130000
     30 H6           2.4420     2.1310     2.2000 ho         1 XTW       0.488000
     31 H7           1.1390    -0.0790    -1.4870 ha         1 XTW       0.136000
     32 H8          -1.1910     0.6650    -1.8460 ha         1 XTW       0.133000
     33 H9          -3.0390     2.9400     0.5850 h1         1 XTW       0.078700
     34 H10         -2.6910     3.1800    -1.1310 h1         1 XTW       0.078700
     35 H11         -3.8410     0.3140     1.2450 h4         1 XTW       0.166000
     36 H12         -5.3810    -2.4370    -0.6800 hc         1 XTW       0.101700
     37 H13         -7.6710    -0.4170    -0.0700 hc         1 XTW       0.071950
     38 H14         -7.8510    -2.2230    -0.3200 hc         1 XTW       0.071950
     39 H15         -6.3160    -2.6450     1.6400 hc         1 XTW       0.071950
     40 H16         -6.1490    -0.8390     1.8910 hc         1 XTW       0.071950
@<TRIPOS>BOND
     1     1     2 1   
     2     2     3 ar  
     3     2     7 ar  
     4     3     4 ar  
     5     3    25 1   
     6     4     5 ar  
     7     4    26 1   
     8     5     6 ar  
     9     5    27 1   
    10     6     7 ar  
    11     6    28 1   
    12     7     8 1   
    13     8     9 1   
    14     9    10 ar  
    15     9    13 ar  
    16    10    11 ar  
    17    10    12 1   
    18    11    15 ar  
    19    11    29 1   
    20    12    30 1   
    21    13    14 ar  
    22    13    31 1   
    23    14    15 ar  
    24    14    32 1   
    25    15    16 1   
    26    16    17 1   
    27    16    33 1   
    28    16    34 1   
    29    17    18 1   
    30    17    19 1   
    31    18    21 2   
    32    18    35 1   
    33    19    20 2   
    34    20    21 1   
    35    21    22 1   
    36    22    23 1   
    37    22    24 1   
    38    22    36 1   
    39    23    24 1   
    40    23    37 1   
    41    23    38 1   
    42    24    39 1   
    43    24    40 1   
@<TRIPOS>SUBSTRUCTURE
     1 XTW         1 TEMP              0 ****  ****    0 ROOT
