@<TRIPOS>MOLECULE
XTW
   40    43     1     0     0
SMALL
bcc


@<TRIPOS>ATOM
      1 CL           5.4200     0.5060     0.6390 cl         1 XTW      -0.090400
      2 CAS          4.3070    -0.7880     0.3710 ca         1 XTW      -0.004600
      3 CAE          4.7600    -2.0950     0.3180 ca         1 XTW      -0.092000
      4 CAC          3.8590    -3.1290     0.1060 ca         1 XTW      -0.147000
      5 CAD          2.5110    -2.8420    -0.0480 ca         1 XTW      -0.092000
      6 CAF          2.0550    -1.5330     0.0070 ca         1 XTW      -0.185000
      7 CAV          2.9540    -0.4950     0.2140 ca         1 XTW       0.124100
      8 OAP          2.6020     0.8160     0.2940 os         1 XTW      -0.246200
      9 CAU          1.3140     1.1790    -0.0250 ca         1 XTW       0.008100
     10 CAQ          0.4380     1.4580     1.0240 ca         1 XTW       0.147100
     11 CAI         -0.8540     1.8740     0.7190 ca         1 XTW      -0.148000
     12 OAA          0.7930     1.3460     2.3130 oh         1 XTW      -0.488100
     13 CAH          0.9140     1.3100    -1.3430 ca         1 XTW      -0.095000
     14 CAG         -0.3790     1.7150    -1.6340 ca         1 XTW      -0.126000
     15 CAR         -1.2660     1.9960    -0.6010 ca         1 XTW      -0.083300
     16 CAM         -2.6790     2.4120    -0.9090 c3         1 XTW       0.098600
     17 NAX         -3.5690     1.2660    -0.9730 na         1 XTW       0.106400
     18 CAJ         -4.2400     0.6790     0.0330 cc         1 XTW      -0.247600
     19 NAO         -3.7250     0.6030    -2.0990 nc         1 XTW      -0.204800
     20 NAN         -4.4950    -0.4060    -1.8610 nd         1 XTW      -0.357000
     21 CAT         -4.8430    -0.4070    -0.5550 cd         1 XTW       0.307600
     22 CAW         -5.7260    -1.4320     0.0210 cx         1 XTW      -0.145000
     23 CAK         -6.6700    -1.0780     1.1370 cx         1 XTW      -0.125900
     24 CAL         -5.4880    -1.9430     1.4160 cx         1 XTW      -0.125900
     25 H1           5.8150    -2.2990     0.4410 ha         1 XTW       0.150000
     26 H2           4.2130    -4.1490     0.0620 ha         1 XTW       0.141000
     27 H3           1.8000    -3.6410    -0.2100 ha         1 XTW       0.139000
     28 H4           0.9990    -1.3310    -0.1140 ha         1 XTW       0.151000
     29 H5          -1.5340     2.1030     1.5320 ha         1 XTW       0.148000
     30 H6           1.7410     1.1880     2.3980 ho         1 XTW       0.449000
     31 H7           1.6170     1.0980    -2.1390 ha         1 XTW       0.154000
     32 H8          -0.6910     1.8170    -2.6650 ha         1 XTW       0.151000
     33 H9          -3.0660     3.0930    -0.1520 h1         1 XTW       0.078700
     34 H10         -2.7360     2.9200    -1.8700 h1         1 XTW       0.078700
     35 H11         -4.2460     1.0640     1.0390 h4         1 XTW       0.184000
     36 H12         -6.0830    -2.1530    -0.7040 hc         1 XTW       0.101700
     37 H13         -6.6560    -0.0570     1.5000 hc         1 XTW       0.071950
     38 H14         -7.6520    -1.5340     1.1270 hc         1 XTW       0.071950
     39 H15         -5.6520    -2.9970     1.5990 hc         1 XTW       0.071950
     40 H16         -4.6600    -1.5170     1.9700 hc         1 XTW       0.071950
@<TRIPOS>BOND
     1     1     2 1   
     2     2     3 ar  
     3     2     7 ar  
     4     3     4 ar  
     5     3    25 1   
     6     4     5 ar  
     7     4    26 1   
     8     5     6 ar  
     9     5    27 1   
    10     6     7 ar  
    11     6    28 1   
    12     7     8 1   
    13     8     9 1   
    14     9    10 ar  
    15     9    13 ar  
    16    10    11 ar  
    17    10    12 1   
    18    11    15 ar  
    19    11    29 1   
    20    12    30 1   
    21    13    14 ar  
    22    13    31 1   
    23    14    15 ar  
    24    14    32 1   
    25    15    16 1   
    26    16    17 1   
    27    16    33 1   
    28    16    34 1   
    29    17    18 1   
    30    17    19 1   
    31    18    21 2   
    32    18    35 1   
    33    19    20 2   
    34    20    21 1   
    35    21    22 1   
    36    22    23 1   
    37    22    24 1   
    38    22    36 1   
    39    23    24 1   
    40    23    37 1   
    41    23    38 1   
    42    24    39 1   
    43    24    40 1   
@<TRIPOS>SUBSTRUCTURE
     1 XTW         1 TEMP              0 ****  ****    0 ROOT
