@<TRIPOS>MOLECULE
XTZ
   45    48     1     0     0
SMALL
No Charge or Current Charge


@<TRIPOS>ATOM
      1 O3          -4.8610    -1.5260    -2.3860 o          1 XTZ      -0.528000
      2 C16         -5.5150    -1.0970    -1.4470 c          1 XTZ       0.622200
      3 N2          -6.8110    -1.4150    -1.2900 ns         1 XTZ      -0.452400
      4 C3          -5.0070    -0.2030    -0.3890 cc         1 XTZ      -0.220600
      5 N4          -3.6650     0.2250    -0.3880 ne         1 XTZ      -0.473300
      6 C4          -3.2110     0.9680     0.5990 c2         1 XTZ       0.307300
      7 C15         -4.0860     1.4210     1.7910 c6         1 XTZ       0.160500
      8 N8          -5.5120     1.0260     1.6130 nu         1 XTZ      -0.794200
      9 C2          -5.8820     0.2080     0.6070 cd         1 XTZ       0.470600
     10 N3          -7.1960    -0.1760     0.6880 nd         1 XTZ      -0.775300
     11 C1          -7.5570    -0.9650    -0.2800 cc         1 XTZ       0.774800
     12 N1          -8.8090    -1.3680    -0.2520 nv         1 XTZ      -1.047200
     13 C5          -1.7560     1.4590     0.6190 c3         1 XTZ       0.204500
     14 N5          -0.8130     0.5560    -0.0930 nu         1 XTZ      -0.955200
     15 C6           0.5440     0.7650    -0.3200 ca         1 XTZ       0.411000
     16 C14          1.2750     1.6910     0.4390 ca         1 XTZ      -0.232000
     17 C13          2.6440     1.8830     0.1950 ca         1 XTZ       0.045500
     18 C9           3.2830     1.1410    -0.8160 ca         1 XTZ      -0.408500
     19 C8           2.5510     0.2110    -1.5780 ca         1 XTZ       0.045500
     20 C7           1.1830     0.0280    -1.3230 ca         1 XTZ      -0.232000
     21 S1           5.0370     1.3620    -1.1150 sy         1 XTZ       1.165600
     22 O1           5.4060     0.8320    -2.4300 o          1 XTZ      -0.522500
     23 O2           5.4520     2.6880    -0.6570 o          1 XTZ      -0.522500
     24 N6           5.7950     0.3600    -0.0320 nu         1 XTZ      -0.811000
     25 C10          5.1580    -0.7130     0.4750 cc         1 XTZ       0.650300
     26 S2           4.6740    -0.8290     2.1460 ss         1 XTZ      -0.079400
     27 C12          4.0800    -2.4240     1.7810 cc         1 XTZ      -0.262000
     28 C11          4.3150    -2.7540     0.4660 cd         1 XTZ       0.294900
     29 N7           4.9500    -1.7710    -0.2800 nd         1 XTZ      -0.636000
     30 H1          -3.6850     0.9790     2.7150 h1         1 XTZ       0.050700
     31 H3          -8.9790    -2.3090    -0.5790 hn         1 XTZ       0.511000
     32 H4          -9.2710    -1.1340     0.6170 hn         1 XTZ       0.511000
     33 H5          -1.7230     2.4570     0.1600 h1         1 XTZ       0.047700
     34 H6          -1.4350     1.5710     1.6630 h1         1 XTZ       0.047700
     35 H7          -1.2510    -0.1370    -0.7060 hn         1 XTZ       0.533000
     36 H8           0.7920     2.2630     1.2240 ha         1 XTZ       0.118500
     37 H9           3.1980     2.6040     0.7970 ha         1 XTZ       0.133000
     38 H10          3.0340    -0.3780    -2.3570 ha         1 XTZ       0.133000
     39 H11          0.6220    -0.6930    -1.9100 ha         1 XTZ       0.118500
     40 H12          6.0810     1.0030     0.6870 hn         1 XTZ       0.497000
     41 H13          3.6060    -3.0190     2.5500 h4         1 XTZ       0.163000
     42 H14          4.0510    -3.6940    -0.0040 h4         1 XTZ       0.047100
     43 H15         -7.2270    -2.0010    -1.9940 hn         1 XTZ       0.328500
     44 H16         -4.0100     2.5140     1.8940 h1         1 XTZ       0.050700
     45 H17         -6.1910     1.1100     2.3680 hn         1 XTZ       0.508000
@<TRIPOS>BOND
     1     1     2 2   
     2     2     3 1   
     3     2     4 1   
     4     3    11 1   
     5     3    43 1   
     6     4     5 1   
     7     4     9 2   
     8     5     6 2   
     9     6     7 1   
    10     6    13 1   
    11     7     8 1   
    12     7    30 1   
    13     7    44 1   
    14     8     9 1   
    15     8    45 1   
    16     9    10 1   
    17    10    11 2   
    18    11    12 1   
    19    12    31 1   
    20    12    32 1   
    21    13    14 1   
    22    13    33 1   
    23    13    34 1   
    24    14    15 1   
    25    14    35 1   
    26    15    16 ar  
    27    15    20 ar  
    28    16    17 ar  
    29    16    36 1   
    30    17    18 ar  
    31    17    37 1   
    32    18    19 ar  
    33    18    21 1   
    34    19    20 ar  
    35    19    38 1   
    36    20    39 1   
    37    21    22 2   
    38    21    23 2   
    39    21    24 1   
    40    24    25 1   
    41    24    40 1   
    42    25    26 1   
    43    25    29 2   
    44    26    27 1   
    45    27    28 2   
    46    27    41 1   
    47    28    29 1   
    48    28    42 1   
@<TRIPOS>SUBSTRUCTURE
     1 XTZ         1 TEMP              0 ****  ****    0 ROOT
