@<TRIPOS>MOLECULE
XTZ
   45    48     1     0     0
SMALL
bcc


@<TRIPOS>ATOM
      1 O3          -4.4310    -2.2730    -1.4820 o          1 XTZ      -0.603500
      2 C16         -5.1730    -1.5230    -0.8600 c          1 XTZ       0.764700
      3 N2          -6.5540    -1.7560    -0.8800 ns         1 XTZ      -0.519400
      4 C3          -4.8120    -0.3950    -0.0790 cc         1 XTZ      -0.220600
      5 N4          -3.4890     0.0180    -0.0420 ne         1 XTZ      -0.473300
      6 C4          -3.1550     0.9720     0.7220 c2         1 XTZ       0.307300
      7 C15         -4.1000     1.6480     1.6810 c6         1 XTZ       0.160500
      8 N8          -5.4610     1.4360     1.2440 nu         1 XTZ      -0.739000
      9 C2          -5.8160     0.3530     0.5380 cd         1 XTZ       0.470600
     10 N3          -7.1290     0.0900     0.4370 nd         1 XTZ      -0.775300
     11 C1          -7.4650    -0.9630    -0.2710 cc         1 XTZ       0.774800
     12 N1          -8.7560    -1.2690    -0.4190 nv         1 XTZ      -0.936800
     13 C5          -1.7360     1.4500     0.7570 c3         1 XTZ       0.204500
     14 N5          -0.9150     0.6590    -0.1080 nu         1 XTZ      -0.761600
     15 C6           0.4010     0.8600    -0.3020 ca         1 XTZ       0.272600
     16 C14          1.1080     1.8700     0.3830 ca         1 XTZ      -0.250000
     17 C13          2.4570     2.0500     0.1680 ca         1 XTZ       0.027500
     18 C9           3.1360     1.2420    -0.7410 ca         1 XTZ      -0.408500
     19 C8           2.4540     0.2360    -1.4280 ca         1 XTZ       0.027500
     20 C7           1.1110     0.0490    -1.2120 ca         1 XTZ      -0.250000
     21 S1           4.8580     1.4270    -0.9350 sy         1 XTZ       1.307200
     22 O1           5.2620     0.8350    -2.1940 o          1 XTZ      -0.593300
     23 O2           5.2660     2.7800    -0.5990 o          1 XTZ      -0.593300
     24 N6           5.5450     0.4870     0.2970 nu         1 XTZ      -0.755800
     25 C10          5.1070    -0.8190     0.4540 cc         1 XTZ       0.650300
     26 S2           4.2780    -1.3280     1.8870 ss         1 XTZ      -0.224300
     27 C12          4.1190    -2.8920     1.2020 cc         1 XTZ      -0.200400
     28 C11          4.6580    -2.8990    -0.0420 cd         1 XTZ       0.360200
     29 N7           5.2210    -1.7280    -0.4560 nd         1 XTZ      -0.636000
     30 H1          -3.9270     1.2550     2.6930 h1         1 XTZ       0.050700
     31 H3          -9.0520    -2.1330    -0.8390 hn         1 XTZ       0.455800
     32 H4          -9.4350    -0.7560     0.1160 hn         1 XTZ       0.455800
     33 H5          -1.7150     2.5110     0.4740 h1         1 XTZ       0.047700
     34 H6          -1.3820     1.4130     1.7970 h1         1 XTZ       0.047700
     35 H7          -1.3930    -0.0710    -0.6180 hn         1 XTZ       0.477800
     36 H8           0.6020     2.5160     1.0870 ha         1 XTZ       0.136500
     37 H9           2.9730     2.8320     0.7090 ha         1 XTZ       0.151000
     38 H10          2.9700    -0.4000    -2.1350 ha         1 XTZ       0.151000
     39 H11          0.5860    -0.7310    -1.7510 ha         1 XTZ       0.136500
     40 H12          5.6670     1.0180     1.1530 hn         1 XTZ       0.441800
     41 H13          3.6660    -3.7060     1.7450 h4         1 XTZ       0.181000
     42 H14          4.6850    -3.7620    -0.6920 h4         1 XTZ       0.047100
     43 H15         -6.8680    -2.5570    -1.4130 hn         1 XTZ       0.328500
     44 H16         -3.8960     2.7200     1.7240 h1         1 XTZ       0.050700
     45 H17         -6.1940     1.9560     1.6990 hn         1 XTZ       0.452800
@<TRIPOS>BOND
     1     1     2 2   
     2     2     3 1   
     3     2     4 1   
     4     3    11 1   
     5     3    43 1   
     6     4     5 1   
     7     4     9 2   
     8     5     6 2   
     9     6     7 1   
    10     6    13 1   
    11     7     8 1   
    12     7    30 1   
    13     7    44 1   
    14     8     9 1   
    15     8    45 1   
    16     9    10 1   
    17    10    11 2   
    18    11    12 1   
    19    12    31 1   
    20    12    32 1   
    21    13    14 1   
    22    13    33 1   
    23    13    34 1   
    24    14    15 1   
    25    14    35 1   
    26    15    16 ar  
    27    15    20 ar  
    28    16    17 ar  
    29    16    36 1   
    30    17    18 ar  
    31    17    37 1   
    32    18    19 ar  
    33    18    21 1   
    34    19    20 ar  
    35    19    38 1   
    36    20    39 1   
    37    21    22 2   
    38    21    23 2   
    39    21    24 1   
    40    24    25 1   
    41    24    40 1   
    42    25    26 1   
    43    25    29 2   
    44    26    27 1   
    45    27    28 2   
    46    27    41 1   
    47    28    29 1   
    48    28    42 1   
@<TRIPOS>SUBSTRUCTURE
     1 XTZ         1 TEMP              0 ****  ****    0 ROOT
