@<TRIPOS>MOLECULE
XU0
   34    37     1     0     0
SMALL
No Charge or Current Charge


@<TRIPOS>ATOM
      1 C13          0.4040    -8.7310    17.3520 c3         1 XU0       0.057900
      2 C12          0.8960    -9.1380    19.8070 cc         1 XU0       0.403400
      3 C01          5.3630    -4.7860    16.7460 ca         1 XU0       0.398900
      4 C02          7.2320    -4.5430    15.4250 ca         1 XU0       0.139900
      5 C03          7.5450    -4.3920    17.6870 ca         1 XU0       0.246000
      6 C04          6.2040    -4.5980    17.8570 ca         1 XU0      -0.228200
      7 C05          7.1600    -4.3230    19.8340 cc         1 XU0       0.440700
      8 C06          3.0570    -4.0220    16.2100 c6         1 XU0       0.231800
      9 C07          1.7530    -4.7000    15.7500 c6         1 XU0       0.023600
     10 C08          2.1700    -6.2250    18.0160 ce         1 XU0      -0.009600
     11 C09          3.4750    -5.9660    17.7550 c2         1 XU0       0.047000
     12 C10          1.7850    -7.2860    18.9440 cc         1 XU0      -0.116800
     13 C11          2.1390    -7.4520    20.2620 cd         1 XU0       0.305200
     14 N01          5.8930    -4.7470    15.5050 nb         1 XU0      -0.253000
     15 N02          8.0920    -4.3650    16.4570 nb         1 XU0      -0.130000
     16 N03          5.9440    -4.5430    19.1990 na         1 XU0      -0.301600
     17 N04          8.1600    -4.2250    18.9300 nd         1 XU0      -0.640700
     18 N05          3.9740    -5.0020    16.8640 nh         1 XU0      -0.658100
     19 N06          1.5850    -8.5910    20.7980 nd         1 XU0      -0.640000
     20 N07          1.0000    -8.3860    18.6530 na         1 XU0      -0.148500
     21 S01          0.8140    -5.4170    17.1680 ss         1 XU0      -0.296600
     22 Br01         3.2340    -6.2820    21.2580 br         1 XU0      -0.148200
     23 H1           0.1970    -9.8070    17.3080 h1         1 XU0       0.061033
     24 H2          -0.5330    -8.1770    17.2190 h1         1 XU0       0.061033
     25 H3           1.0990    -8.4670    16.5450 h1         1 XU0       0.061033
     26 H4           0.3250   -10.0580    19.8510 h5         1 XU0       0.063100
     27 H5           7.6610    -4.5180    14.4250 h5         1 XU0       0.055100
     28 H6           7.2490    -4.2360    20.9110 h5         1 XU0       0.073800
     29 H7           3.5370    -3.5430    15.3440 h1         1 XU0       0.078700
     30 H8           2.8010    -3.2220    16.9210 h1         1 XU0       0.078700
     31 H9           1.1080    -3.9760    15.2340 h1         1 XU0       0.083200
     32 H10          1.9920    -5.5110    15.0490 h1         1 XU0       0.083200
     33 H12          4.2460    -6.5560    18.2580 h4         1 XU0       0.203000
     34 H14          5.0440    -4.6120    19.6590 hn         1 XU0       0.376000
@<TRIPOS>BOND
     1     1    20 1   
     2     1    23 1   
     3     1    24 1   
     4     1    25 1   
     5     2    19 2   
     6     2    20 1   
     7     2    26 1   
     8     3     6 ar  
     9     3    14 ar  
    10     3    18 1   
    11     4    14 ar  
    12     4    15 ar  
    13     4    27 1   
    14     5     6 ar  
    15     5    15 ar  
    16     5    17 1   
    17     6    16 1   
    18     7    16 1   
    19     7    17 2   
    20     7    28 1   
    21     8     9 1   
    22     8    18 1   
    23     8    29 1   
    24     8    30 1   
    25     9    21 1   
    26     9    31 1   
    27     9    32 1   
    28    10    11 2   
    29    10    12 1   
    30    10    21 1   
    31    11    18 1   
    32    11    33 1   
    33    12    13 2   
    34    12    20 1   
    35    13    19 1   
    36    13    22 1   
    37    16    34 1   
@<TRIPOS>SUBSTRUCTURE
     1 XU0         1 TEMP              0 ****  ****    0 ROOT
