@<TRIPOS>MOLECULE
XU0
   34    37     1     0     0
SMALL
abcg2


@<TRIPOS>ATOM
      1 C13          0.5070    -8.6810    17.4920 c3         1 XU0       0.057900
      2 C12          0.9230    -8.8700    19.9530 cc         1 XU0       0.403400
      3 C01          5.2630    -4.5660    16.8090 ca         1 XU0       0.398900
      4 C02          7.0590    -3.5790    15.7320 ca         1 XU0       0.139900
      5 C03          7.4740    -4.3930    17.7650 ca         1 XU0       0.246000
      6 C04          6.1310    -4.7980    17.8920 ca         1 XU0      -0.228200
      7 C05          7.2750    -5.2010    19.7280 cc         1 XU0       0.440700
      8 C06          3.0530    -4.2470    15.8050 c6         1 XU0       0.231800
      9 C07          1.7410    -4.9750    15.6030 c6         1 XU0       0.023600
     10 C08          2.1580    -6.1110    17.9670 ce         1 XU0      -0.009600
     11 C09          3.4480    -5.8760    17.6600 c2         1 XU0       0.047000
     12 C10          1.8070    -7.0900    18.9830 cc         1 XU0      -0.116800
     13 C11          2.0990    -7.1450    20.3300 cd         1 XU0       0.305200
     14 N01          5.7670    -3.9270    15.7480 nb         1 XU0      -0.253000
     15 N02          7.9670    -3.7840    16.6750 nb         1 XU0      -0.130000
     16 N03          6.0420    -5.3090    19.1720 na         1 XU0      -0.301600
     17 N04          8.1680    -4.6680    18.9200 nd         1 XU0      -0.640700
     18 N05          3.9310    -4.9220    16.7790 nh         1 XU0      -0.658100
     19 N06          1.5590    -8.2380    20.9270 nd         1 XU0      -0.640000
     20 N07          1.0370    -8.2240    18.7690 na         1 XU0      -0.148500
     21 S01          0.8500    -5.2330    17.1680 ss         1 XU0      -0.296600
     22 BR01         3.1090    -5.8810    21.3110 br         1 XU0      -0.148200
     23 H1           0.1580    -9.7040    17.6140 h1         1 XU0       0.061033
     24 H2          -0.3170    -8.0470    17.1710 h1         1 XU0       0.061033
     25 H3           1.2940    -8.6530    16.7400 h1         1 XU0       0.061033
     26 H4           0.3760    -9.7940    20.0530 h5         1 XU0       0.063100
     27 H5           7.3930    -3.0690    14.8350 h5         1 XU0       0.055100
     28 H6           7.4630    -5.5300    20.7380 h5         1 XU0       0.073800
     29 H7           3.5840    -4.2010    14.8560 h1         1 XU0       0.078700
     30 H8           2.8740    -3.2240    16.1400 h1         1 XU0       0.078700
     31 H9           1.0960    -4.3780    14.9610 h1         1 XU0       0.083200
     32 H10          1.8970    -5.9500    15.1420 h1         1 XU0       0.083200
     33 H12          4.2000    -6.5190    18.0910 h4         1 XU0       0.203000
     34 H14          5.2170    -5.6180    19.6690 hn         1 XU0       0.376000
@<TRIPOS>BOND
     1     1    20 1   
     2     1    23 1   
     3     1    24 1   
     4     1    25 1   
     5     2    19 2   
     6     2    20 1   
     7     2    26 1   
     8     3     6 ar  
     9     3    14 ar  
    10     3    18 1   
    11     4    14 ar  
    12     4    15 ar  
    13     4    27 1   
    14     5     6 ar  
    15     5    15 ar  
    16     5    17 1   
    17     6    16 1   
    18     7    16 1   
    19     7    17 2   
    20     7    28 1   
    21     8     9 1   
    22     8    18 1   
    23     8    29 1   
    24     8    30 1   
    25     9    21 1   
    26     9    31 1   
    27     9    32 1   
    28    10    11 2   
    29    10    12 1   
    30    10    21 1   
    31    11    18 1   
    32    11    33 1   
    33    12    13 2   
    34    12    20 1   
    35    13    19 1   
    36    13    22 1   
    37    16    34 1   
@<TRIPOS>SUBSTRUCTURE
     1 XU0         1 TEMP              0 ****  ****    0 ROOT
