@<TRIPOS>MOLECULE
XU1
   23    25     1     0     0
SMALL
abcg2


@<TRIPOS>ATOM
      1 C11          2.6270     2.0360     0.0060 ca         1 XU1      -0.078000
      2 C12          1.2490     1.9650     0.0080 ca         1 XU1      -0.118000
      3 C8           0.5970     0.7260     0.0000 ca         1 XU1       0.026000
      4 C1          -0.8530     0.6070     0.0020 ca         1 XU1      -0.133000
      5 C10          3.3960     0.8730    -0.0030 ca         1 XU1      -0.124000
      6 C9           2.7720    -0.3570    -0.0110 ca         1 XU1      -0.047000
      7 C7           1.3780    -0.4390    -0.0090 ca         1 XU1      -0.157600
      8 C6           0.7560    -1.7740    -0.0180 c          1 XU1       0.584600
      9 O1           1.3910    -2.8160    -0.0270 o          1 XU1      -0.539000
     10 N2          -0.6070    -1.7800    -0.0160 ns         1 XU1      -0.465400
     11 C5          -1.4210    -0.6750    -0.0070 ca         1 XU1       0.497900
     12 N1          -2.7230    -0.9170    -0.0070 nb         1 XU1      -0.720000
     13 C4          -3.5450     0.1200     0.0020 ca         1 XU1       0.388900
     14 C3          -3.1070     1.4380     0.0110 ca         1 XU1      -0.204000
     15 C2          -1.7460     1.6760     0.0110 ca         1 XU1      -0.024000
     16 H1           3.1110     3.0040     0.0130 ha         1 XU1       0.117000
     17 H2           0.6780     2.8830     0.0160 ha         1 XU1       0.115000
     18 H3           4.4760     0.9340    -0.0040 ha         1 XU1       0.121000
     19 H4           3.3600    -1.2640    -0.0180 ha         1 XU1       0.140000
     20 H5          -1.0680    -2.6820    -0.0210 hn         1 XU1       0.343500
     21 H6          -4.6050    -0.1060     0.0020 h4         1 XU1       0.024100
     22 H7          -3.8180     2.2510     0.0170 ha         1 XU1       0.130000
     23 H8          -1.3860     2.6960     0.0170 ha         1 XU1       0.122000
@<TRIPOS>BOND
     1     1     2 ar  
     2     1     5 ar  
     3     1    16 1   
     4     2     3 ar  
     5     2    17 1   
     6     3     4 1   
     7     3     7 ar  
     8     4    11 ar  
     9     4    15 ar  
    10     5     6 ar  
    11     5    18 1   
    12     6     7 ar  
    13     6    19 1   
    14     7     8 1   
    15     8     9 2   
    16     8    10 1   
    17    10    11 1   
    18    10    20 1   
    19    11    12 ar  
    20    12    13 ar  
    21    13    14 ar  
    22    13    21 1   
    23    14    15 ar  
    24    14    22 1   
    25    15    23 1   
@<TRIPOS>SUBSTRUCTURE
     1 XU1         1 TEMP              0 ****  ****    0 ROOT
