@<TRIPOS>MOLECULE
XU1
   23    25     1     0     0
SMALL
No Charge or Current Charge


@<TRIPOS>ATOM
      1 C11          2.6440     2.0610     0.0070 ca         1 XU1      -0.078000
      2 C12          1.2420     1.9820     0.0080 ca         1 XU1      -0.118000
      3 C8           0.5870     0.7260     0.0000 ca         1 XU1       0.026000
      4 C1          -0.8330     0.6100     0.0010 ca         1 XU1      -0.133000
      5 C10          3.4170     0.8920    -0.0030 ca         1 XU1      -0.124000
      6 C9           2.7880    -0.3610    -0.0110 ca         1 XU1      -0.047000
      7 C7           1.3790    -0.4570    -0.0090 ca         1 XU1      -0.157600
      8 C6           0.7290    -1.8190    -0.0180 c          1 XU1       0.584600
      9 O1           1.3510    -2.8700    -0.0270 o          1 XU1      -0.539000
     10 N2          -0.6260    -1.8040    -0.0160 ns         1 XU1      -0.465400
     11 C5          -1.4080    -0.6750    -0.0070 ca         1 XU1       0.497900
     12 N1          -2.7200    -0.9520    -0.0070 nb         1 XU1      -0.720000
     13 C4          -3.5620     0.1050     0.0020 ca         1 XU1       0.388900
     14 C3          -3.1090     1.4350     0.0110 ca         1 XU1      -0.204000
     15 C2          -1.7290     1.7030     0.0110 ca         1 XU1      -0.024000
     16 H1           3.1330     3.0340     0.0130 ha         1 XU1       0.117000
     17 H2           0.6890     2.9140     0.0160 ha         1 XU1       0.115000
     18 H3           4.5030     0.9570    -0.0040 ha         1 XU1       0.121000
     19 H4           3.4010    -1.2610    -0.0180 ha         1 XU1       0.140000
     20 H5          -1.1100    -2.6880    -0.0220 hn         1 XU1       0.343500
     21 H6          -4.6280    -0.1200     0.0020 h4         1 XU1       0.024100
     22 H7          -3.8290     2.2480     0.0180 ha         1 XU1       0.130000
     23 H8          -1.3970     2.7370     0.0180 ha         1 XU1       0.122000
@<TRIPOS>BOND
     1     1     2 ar  
     2     1     5 ar  
     3     1    16 1   
     4     2     3 ar  
     5     2    17 1   
     6     3     4 1   
     7     3     7 ar  
     8     4    11 ar  
     9     4    15 ar  
    10     5     6 ar  
    11     5    18 1   
    12     6     7 ar  
    13     6    19 1   
    14     7     8 1   
    15     8     9 2   
    16     8    10 1   
    17    10    11 1   
    18    10    20 1   
    19    11    12 ar  
    20    12    13 ar  
    21    13    14 ar  
    22    13    21 1   
    23    14    15 ar  
    24    14    22 1   
    25    15    23 1   
@<TRIPOS>SUBSTRUCTURE
     1 XU1         1 TEMP              0 ****  ****    0 ROOT
