@<TRIPOS>MOLECULE
XU2
   49    53     1     0     0
SMALL
No Charge or Current Charge


@<TRIPOS>ATOM
      1 O12         -5.4240     0.9550     2.9020 o          1 XU2      -0.541000
      2 C8          -4.8820     0.5410     1.8890 c          1 XU2       0.584600
      3 C7          -3.8530     1.3120     1.1070 ca         1 XU2      -0.166600
      4 C6          -3.5310     2.6230     1.5230 ca         1 XU2      -0.050000
      5 C5          -2.6250     3.4010     0.7940 ca         1 XU2      -0.126000
      6 C1          -2.0540     2.8840    -0.3730 ca         1 XU2      -0.081000
      7 C2          -2.3620     1.5810    -0.7930 ca         1 XU2      -0.112000
      8 C3          -3.2290     0.7420    -0.0450 ca         1 XU2       0.037000
      9 C4          -3.5500    -0.6100    -0.4140 ca         1 XU2      -0.171000
     10 N1          -5.1960    -0.6640     1.3680 ns         1 XU2      -0.466400
     11 C9          -4.5840    -1.2490     0.2920 ca         1 XU2       0.515900
     12 N2          -5.0910    -2.4620     0.0520 nb         1 XU2      -0.741000
     13 C10         -4.5520    -3.1540    -0.9660 ca         1 XU2       0.413900
     14 C11         -3.4800    -2.6680    -1.7110 ca         1 XU2      -0.274000
     15 C12         -2.9450    -1.4100    -1.4260 ca         1 XU2       0.385000
     16 N3          -1.7740    -1.1110    -2.1180 nu         1 XU2      -0.973000
     17 C13         -0.4730    -0.8490    -1.6740 ca         1 XU2       0.263000
     18 C14         -0.1550    -0.8290    -0.3050 ca         1 XU2      -0.122000
     19 C15          1.1590    -0.5590     0.1210 ca         1 XU2      -0.114000
     20 C18          0.5400    -0.6100    -2.6150 ca         1 XU2      -0.122000
     21 C17          1.8540    -0.3410    -2.1940 ca         1 XU2      -0.114000
     22 C16          2.1780    -0.3080    -0.8240 ca         1 XU2      -0.043000
     23 N4           3.5300    -0.0280    -0.4750 ns         1 XU2      -0.144000
     24 C19          4.1710     0.1480     0.7470 c          1 XU2       0.619700
     25 O38          3.5890     0.0960     1.8260 o          1 XU2      -0.577100
     26 C20          5.6650     0.4210     0.6760 ca         1 XU2      -0.156600
     27 C21          6.3940     0.6180     1.8740 ca         1 XU2      -0.071000
     28 C22          7.7760     0.8720     1.8430 ca         1 XU2      -0.119000
     29 C23          8.4540     0.9340     0.6160 ca         1 XU2      -0.086000
     30 C24          7.7470     0.7420    -0.5810 ca         1 XU2      -0.119000
     31 C25          6.3650     0.4870    -0.5560 ca         1 XU2      -0.071000
     32 H1          -3.9960     3.0500     2.4110 ha         1 XU2       0.138000
     33 H2          -2.3870     4.4120     1.1180 ha         1 XU2       0.119000
     34 H3          -1.3800     3.4990    -0.9640 ha         1 XU2       0.113000
     35 H4          -1.9370     1.2700    -1.7360 ha         1 XU2       0.130000
     36 H5          -5.8920    -1.2170     1.8420 hn         1 XU2       0.343500
     37 H6          -4.9690    -4.1410    -1.1630 h4         1 XU2       0.024100
     38 H7          -3.0430    -3.2970    -2.4800 ha         1 XU2       0.126000
     39 H8          -1.8110    -1.3950    -3.0970 hn         1 XU2       0.482000
     40 H9          -0.9220    -1.0240     0.4370 ha         1 XU2       0.123000
     41 H10          1.3590    -0.5560     1.1880 ha         1 XU2       0.129500
     42 H11          0.3100    -0.6250    -3.6770 ha         1 XU2       0.123000
     43 H12          2.6240    -0.1540    -2.9410 ha         1 XU2       0.129500
     44 H13          4.1420     0.0570    -1.2750 hn         1 XU2       0.153000
     45 H14          5.8910     0.5740     2.8380 ha         1 XU2       0.124000
     46 H15          8.3210     1.0200     2.7720 ha         1 XU2       0.118500
     47 H16          9.5240     1.1310     0.5930 ha         1 XU2       0.117000
     48 H17          8.2730     0.7900    -1.5320 ha         1 XU2       0.118500
     49 H18          5.8570     0.3440    -1.5070 ha         1 XU2       0.124000
@<TRIPOS>BOND
     1     1     2 2   
     2     2     3 1   
     3     2    10 1   
     4     3     4 ar  
     5     3     8 ar  
     6     4     5 ar  
     7     4    32 1   
     8     5     6 ar  
     9     5    33 1   
    10     6     7 ar  
    11     6    34 1   
    12     7     8 ar  
    13     7    35 1   
    14     8     9 1   
    15     9    11 ar  
    16     9    15 ar  
    17    10    11 1   
    18    10    36 1   
    19    11    12 ar  
    20    12    13 ar  
    21    13    14 ar  
    22    13    37 1   
    23    14    15 ar  
    24    14    38 1   
    25    15    16 1   
    26    16    17 1   
    27    16    39 1   
    28    17    18 ar  
    29    17    20 ar  
    30    18    19 ar  
    31    18    40 1   
    32    19    22 ar  
    33    19    41 1   
    34    20    21 ar  
    35    20    42 1   
    36    21    22 ar  
    37    21    43 1   
    38    22    23 1   
    39    23    24 1   
    40    23    44 1   
    41    24    25 2   
    42    24    26 1   
    43    26    27 ar  
    44    26    31 ar  
    45    27    28 ar  
    46    27    45 1   
    47    28    29 ar  
    48    28    46 1   
    49    29    30 ar  
    50    29    47 1   
    51    30    31 ar  
    52    30    48 1   
    53    31    49 1   
@<TRIPOS>SUBSTRUCTURE
     1 XU2         1 TEMP              0 ****  ****    0 ROOT
