@<TRIPOS>MOLECULE
XU2
   49    53     1     0     0
SMALL
bcc


@<TRIPOS>ATOM
      1 O12         -4.5450     1.3580     2.9680 o          1 XU2      -0.616500
      2 C8          -4.2240     0.8150     1.9230 c          1 XU2       0.727100
      3 C7          -3.2900     1.3950     0.9470 ca         1 XU2      -0.166600
      4 C6          -2.8500     2.7010     1.1670 ca         1 XU2      -0.068000
      5 C5          -2.0710     3.3440     0.2290 ca         1 XU2      -0.144000
      6 C1          -1.7570     2.6850    -0.9570 ca         1 XU2      -0.099000
      7 C2          -2.1690     1.3860    -1.1750 ca         1 XU2      -0.130000
      8 C3          -2.9170     0.6910    -0.2130 ca         1 XU2       0.037000
      9 C4          -3.3810    -0.6810    -0.3880 ca         1 XU2      -0.236300
     10 N1          -4.7710    -0.3730     1.5470 ns         1 XU2      -0.533400
     11 C9          -4.4070    -1.1310     0.4610 ca         1 XU2       0.581200
     12 N2          -5.0820    -2.2620     0.3250 nb         1 XU2      -0.741000
     13 C10         -4.7400    -3.0470    -0.6870 ca         1 XU2       0.479200
     14 C11         -3.6750    -2.7890    -1.5220 ca         1 XU2      -0.357300
     15 C12         -2.9340    -1.6170    -1.3480 ca         1 XU2       0.246600
     16 N3          -1.8130    -1.4410    -2.1270 nu         1 XU2      -0.641000
     17 C13         -0.5430    -1.0780    -1.6540 ca         1 XU2       0.124600
     18 C14         -0.2120    -1.0420    -0.3040 ca         1 XU2      -0.140000
     19 C15          1.0570    -0.6720     0.1120 ca         1 XU2      -0.132000
     20 C18          0.4360    -0.7440    -2.5870 ca         1 XU2      -0.140000
     21 C17          1.7090    -0.3970    -2.1770 ca         1 XU2      -0.132000
     22 C16          2.0380    -0.3480    -0.8220 ca         1 XU2       0.049600
     23 N4           3.3340     0.0650    -0.4850 ns         1 XU2      -0.470100
     24 C19          4.0350    -0.2410     0.6350 c          1 XU2       0.686700
     25 O38          3.6060    -0.9540     1.5260 o          1 XU2      -0.577100
     26 C20          5.4050     0.3510     0.7070 ca         1 XU2      -0.156600
     27 C21          6.3570    -0.3040     1.4870 ca         1 XU2      -0.089000
     28 C22          7.6410     0.2060     1.5990 ca         1 XU2      -0.137000
     29 C23          7.9820     1.3850     0.9500 ca         1 XU2      -0.104000
     30 C24          7.0330     2.0530     0.1880 ca         1 XU2      -0.137000
     31 C25          5.7510     1.5380     0.0640 ca         1 XU2      -0.089000
     32 H1          -3.1460     3.2100     2.0740 ha         1 XU2       0.156000
     33 H2          -1.7310     4.3560     0.4020 ha         1 XU2       0.137000
     34 H3          -1.1860     3.1920    -1.7230 ha         1 XU2       0.131000
     35 H4          -1.9350     0.9270    -2.1220 ha         1 XU2       0.148000
     36 H5          -5.4810    -0.7730     2.1480 hn         1 XU2       0.343500
     37 H6          -5.3170    -3.9560    -0.8100 h4         1 XU2       0.024100
     38 H7          -3.3830    -3.5120    -2.2720 ha         1 XU2       0.144000
     39 H8          -1.7840    -2.0400    -2.9400 hn         1 XU2       0.426800
     40 H9          -0.9440    -1.3020     0.4500 ha         1 XU2       0.141000
     41 H10          1.2620    -0.6390     1.1700 ha         1 XU2       0.147500
     42 H11          0.2030    -0.7590    -3.6450 ha         1 XU2       0.141000
     43 H12          2.4560    -0.1530    -2.9220 ha         1 XU2       0.147500
     44 H13          3.8390     0.5220    -1.2290 hn         1 XU2       0.319500
     45 H14          6.0960    -1.2210     1.9980 ha         1 XU2       0.142000
     46 H15          8.3750    -0.3160     2.1990 ha         1 XU2       0.136500
     47 H16          8.9830     1.7850     1.0420 ha         1 XU2       0.135000
     48 H17          7.2880     2.9810    -0.3060 ha         1 XU2       0.136500
     49 H18          5.0250     2.0920    -0.5180 ha         1 XU2       0.142000
@<TRIPOS>BOND
     1     1     2 2   
     2     2     3 1   
     3     2    10 1   
     4     3     4 ar  
     5     3     8 ar  
     6     4     5 ar  
     7     4    32 1   
     8     5     6 ar  
     9     5    33 1   
    10     6     7 ar  
    11     6    34 1   
    12     7     8 ar  
    13     7    35 1   
    14     8     9 1   
    15     9    11 ar  
    16     9    15 ar  
    17    10    11 1   
    18    10    36 1   
    19    11    12 ar  
    20    12    13 ar  
    21    13    14 ar  
    22    13    37 1   
    23    14    15 ar  
    24    14    38 1   
    25    15    16 1   
    26    16    17 1   
    27    16    39 1   
    28    17    18 ar  
    29    17    20 ar  
    30    18    19 ar  
    31    18    40 1   
    32    19    22 ar  
    33    19    41 1   
    34    20    21 ar  
    35    20    42 1   
    36    21    22 ar  
    37    21    43 1   
    38    22    23 1   
    39    23    24 1   
    40    23    44 1   
    41    24    25 2   
    42    24    26 1   
    43    26    27 ar  
    44    26    31 ar  
    45    27    28 ar  
    46    27    45 1   
    47    28    29 ar  
    48    28    46 1   
    49    29    30 ar  
    50    29    47 1   
    51    30    31 ar  
    52    30    48 1   
    53    31    49 1   
@<TRIPOS>SUBSTRUCTURE
     1 XU2         1 TEMP              0 ****  ****    0 ROOT
