@<TRIPOS>MOLECULE
XU4
   63    64     1     0     0
SMALL
No Charge or Current Charge


@<TRIPOS>ATOM
      1 C10        -15.7010    10.3990   -26.5280 c          1 XU4       0.564000
      2 C15        -19.6870    16.1810   -24.7360 c3         1 XU4      -0.085400
      3 C17        -19.1890    18.2500   -26.2270 c3         1 XU4      -0.091100
      4 C20        -19.2630    14.7690   -28.2110 c          1 XU4       0.646100
      5 C22        -19.7880    14.5220   -30.5490 c3         1 XU4       0.243600
      6 C24        -20.6330    15.2820   -31.5710 ca         1 XU4      -0.094300
      7 C26        -20.7810    16.6680   -33.5790 ca         1 XU4      -0.114500
      8 C28        -22.8100    16.0080   -32.4140 ca         1 XU4      -0.114500
      9 C02        -19.4550    13.6630   -25.1840 c          1 XU4       0.587100
     10 C04        -18.3880    11.7620   -23.9060 c3         1 XU4       0.104700
     11 C05        -17.1190    11.0610   -24.4630 c3         1 XU4      -0.068400
     12 C06        -16.9360    11.1440   -26.0080 c5         1 XU4      -0.156700
     13 C07        -18.0850    10.5240   -26.8520 c5         1 XU4      -0.089400
     14 C08        -17.3770    10.3140   -28.2180 c5         1 XU4       0.100000
     15 C12        -18.4940    11.7150   -22.3580 c3         1 XU4       0.149600
     16 C14        -19.1850    15.0960   -25.7260 c3         1 XU4       0.053700
     17 C18        -19.4560    18.5080   -23.7120 c3         1 XU4      -0.091100
     18 C23        -20.0730    13.0030   -30.5790 c3         1 XU4      -0.115100
     19 C25        -20.0100    15.9690   -32.6340 ca         1 XU4      -0.088500
     20 C27        -22.1810    16.6870   -33.4700 ca         1 XU4      -0.102000
     21 C29        -22.0400    15.3090   -31.4680 ca         1 XU4      -0.088500
     22 N03        -18.4510    13.1500   -24.3870 ns         1 XU4      -0.502900
     23 N09        -16.0410     9.9320   -27.7690 ns         1 XU4      -0.514900
     24 N19        -19.8090    15.2450   -27.0550 ns         1 XU4      -0.481900
     25 O01        -20.4630    13.0190   -25.4520 o          1 XU4      -0.601100
     26 O11        -14.6940    10.0480   -25.9350 o          1 XU4      -0.564000
     27 O13        -18.5780    10.3630   -21.8840 oh         1 XU4      -0.655000
     28 O21        -20.1150    15.0250   -29.2400 os         1 XU4      -0.457100
     29 O30        -18.1810    14.2070   -28.2900 o          1 XU4      -0.557000
     30 H151       -20.7750    16.2940   -24.8320 hc         1 XU4       0.056700
     31 H152       -19.5140    15.8120   -23.7170 hc         1 XU4       0.056700
     32 H172       -18.7540    19.2570   -26.2260 hc         1 XU4       0.036700
     33 H173       -18.6930    17.6830   -27.0230 hc         1 XU4       0.036700
     34 H171       -20.2540    18.3390   -26.4730 hc         1 XU4       0.036700
     35 H221       -18.7260    14.6930   -30.7760 h1         1 XU4       0.070700
     36 H261       -20.2920    17.1940   -34.3960 ha         1 XU4       0.113500
     37 H281       -23.8950    16.0230   -32.3270 ha         1 XU4       0.113500
     38 H041       -19.2580    11.2180   -24.2970 h1         1 XU4       0.094700
     39 H052       -17.1400    10.0070   -24.1590 hc         1 XU4       0.064200
     40 H051       -16.2400    11.4980   -23.9740 hc         1 XU4       0.064200
     41 H061       -16.8190    12.1900   -26.3140 hc         1 XU4       0.091700
     42 H071       -18.9650    11.1710   -26.9330 hc         1 XU4       0.063700
     43 H072       -18.4150     9.5650   -26.4350 hc         1 XU4       0.063700
     44 H082       -17.3500    11.2430   -28.8040 h1         1 XU4       0.043700
     45 H081       -17.8650     9.5360   -28.8210 h1         1 XU4       0.043700
     46 H121       -17.6210    12.2180   -21.9210 h1         1 XU4       0.021200
     47 H141       -18.0970    15.1970   -25.8360 h1         1 XU4       0.072700
     48 H161       -17.9150    17.4130   -24.7160 hc         1 XU4       0.045700
     49 H181       -18.9210    19.4640   -23.7540 hc         1 XU4       0.036700
     50 H183       -20.5310    18.7130   -23.7870 hc         1 XU4       0.036700
     51 H182       -19.2600    18.0570   -22.7320 hc         1 XU4       0.036700
     52 H233       -19.3910    12.4570   -29.9180 hc         1 XU4       0.050700
     53 H231       -21.1020    12.7890   -30.2670 hc         1 XU4       0.050700
     54 H232       -19.9360    12.6140   -31.5950 hc         1 XU4       0.050700
     55 H251       -18.9260    15.9620   -32.7300 ha         1 XU4       0.116500
     56 H271       -22.7770    17.2280   -34.2020 ha         1 XU4       0.113000
     57 H291       -22.5380    14.7900   -30.6520 ha         1 XU4       0.116500
     58 H031       -17.6580    13.7540   -24.2070 hn         1 XU4       0.313500
     59 H091       -15.3920     9.3300   -28.2630 hn         1 XU4       0.323500
     60 H191       -20.7230    15.6690   -27.1360 hn         1 XU4       0.337500
     61 H1         -19.3880    12.2730   -22.0490 h1         1 XU4       0.021200
     62 H2         -18.6480    10.4050   -20.9040 ho         1 XU4       0.447000
     63 C16        -18.9940    17.5700   -24.8510 c3         1 XU4      -0.059700
@<TRIPOS>BOND
     1     1    12 1   
     2     1    23 1   
     3     1    26 2   
     4     2    16 1   
     5     2    30 1   
     6     2    31 1   
     7     2    63 1   
     8     3    32 1   
     9     3    33 1   
    10     3    34 1   
    11     3    63 1   
    12     4    24 1   
    13     4    28 1   
    14     4    29 2   
    15     5     6 1   
    16     5    18 1   
    17     5    28 1   
    18     5    35 1   
    19     6    19 ar  
    20     6    21 ar  
    21     7    19 ar  
    22     7    20 ar  
    23     7    36 1   
    24     8    20 ar  
    25     8    21 ar  
    26     8    37 1   
    27     9    16 1   
    28     9    22 1   
    29     9    25 2   
    30    10    11 1   
    31    10    15 1   
    32    10    22 1   
    33    10    38 1   
    34    11    12 1   
    35    11    39 1   
    36    11    40 1   
    37    12    13 1   
    38    12    41 1   
    39    13    14 1   
    40    13    42 1   
    41    13    43 1   
    42    14    23 1   
    43    14    44 1   
    44    14    45 1   
    45    15    27 1   
    46    15    46 1   
    47    15    61 1   
    48    16    24 1   
    49    16    47 1   
    50    17    49 1   
    51    17    50 1   
    52    17    51 1   
    53    17    63 1   
    54    18    52 1   
    55    18    53 1   
    56    18    54 1   
    57    19    55 1   
    58    20    56 1   
    59    21    57 1   
    60    22    58 1   
    61    23    59 1   
    62    24    60 1   
    63    27    62 1   
    64    48    63 1   
@<TRIPOS>SUBSTRUCTURE
     1 XU4         1 TEMP              0 ****  ****    0 ROOT
