@<TRIPOS>MOLECULE
XU4
   63    64     1     0     0
SMALL
abcg2


@<TRIPOS>ATOM
      1 C10        -15.8950    10.3880   -26.9110 c          1 XU4       0.564000
      2 C15        -19.7740    16.1450   -24.6310 c3         1 XU4      -0.085400
      3 C17        -19.5510    18.3930   -25.8380 c3         1 XU4      -0.091100
      4 C20        -19.3420    14.8230   -28.0860 c          1 XU4       0.646100
      5 C22        -19.8530    14.3420   -30.3550 c3         1 XU4       0.243600
      6 C24        -20.4350    15.1520   -31.4840 ca         1 XU4      -0.094300
      7 C26        -20.1980    16.1310   -33.6800 ca         1 XU4      -0.114500
      8 C28        -22.2840    16.3180   -32.5060 ca         1 XU4      -0.114500
      9 C02        -19.2900    13.8030   -25.3120 c          1 XU4       0.587100
     10 C04        -18.1600    11.9440   -24.1400 c3         1 XU4       0.104700
     11 C05        -16.9950    11.1810   -24.7690 c3         1 XU4      -0.068400
     12 C06        -17.0590    11.1420   -26.2870 c5         1 XU4      -0.156700
     13 C07        -18.2820    10.4510   -26.8900 c5         1 XU4      -0.089400
     14 C08        -17.7780     9.9400   -28.2410 c5         1 XU4       0.100000
     15 C12        -18.0620    12.0160   -22.6190 c3         1 XU4       0.149600
     16 C14        -19.1390    15.2710   -25.7200 c3         1 XU4       0.053700
     17 C18        -19.9270    18.2830   -23.3660 c3         1 XU4      -0.091100
     18 C23        -20.4540    12.9470   -30.2870 c3         1 XU4      -0.115100
     19 C25        -19.6650    15.4230   -32.6090 ca         1 XU4      -0.088500
     20 C27        -21.5080    16.5830   -33.6290 ca         1 XU4      -0.102000
     21 C29        -21.7520    15.6050   -31.4420 ca         1 XU4      -0.088500
     22 N03        -18.2330    13.2930   -24.6600 ns         1 XU4      -0.502900
     23 N09        -16.3710     9.7250   -27.9790 ns         1 XU4      -0.514900
     24 N19        -19.7700    15.4890   -26.9970 ns         1 XU4      -0.481900
     25 O01        -20.3220    13.1910   -25.5340 o          1 XU4      -0.601100
     26 O11        -14.7370    10.3960   -26.5250 o          1 XU4      -0.564000
     27 O13        -18.0720    10.7090   -22.0970 oh         1 XU4      -0.655000
     28 O21        -20.1220    15.0630   -29.1430 os         1 XU4      -0.457100
     29 O30        -18.3580    14.1110   -28.1050 o          1 XU4      -0.557000
     30 H151       -20.8650    16.1160   -24.7370 hc         1 XU4       0.056700
     31 H152       -19.5550    15.6820   -23.6650 hc         1 XU4       0.056700
     32 H172       -19.2450    19.4320   -25.7040 hc         1 XU4       0.036700
     33 H173       -19.0070    18.0020   -26.6970 hc         1 XU4       0.036700
     34 H171       -20.6150    18.3930   -26.0880 hc         1 XU4       0.036700
     35 H221       -18.7730    14.2630   -30.4970 h1         1 XU4       0.070700
     36 H261       -19.5850    16.3340   -34.5490 ha         1 XU4       0.113500
     37 H281       -23.3070    16.6690   -32.4600 ha         1 XU4       0.113500
     38 H041       -19.0990    11.4530   -24.4030 h1         1 XU4       0.094700
     39 H052       -16.9930    10.1610   -24.3790 hc         1 XU4       0.064200
     40 H051       -16.0530    11.6410   -24.4550 hc         1 XU4       0.064200
     41 H061       -17.0000    12.1650   -26.6780 hc         1 XU4       0.091700
     42 H071       -19.1410    11.1100   -26.9950 hc         1 XU4       0.063700
     43 H072       -18.5820     9.6070   -26.2630 hc         1 XU4       0.063700
     44 H082       -17.9270    10.6810   -29.0320 h1         1 XU4       0.043700
     45 H081       -18.2670     9.0160   -28.5510 h1         1 XU4       0.043700
     46 H121       -17.1440    12.5560   -22.3490 h1         1 XU4       0.021200
     47 H141       -18.0760    15.5240   -25.7930 h1         1 XU4       0.072700
     48 H161       -18.2030    17.5660   -24.4030 hc         1 XU4       0.045700
     49 H181       -19.5540    19.3020   -23.2500 hc         1 XU4       0.036700
     50 H183       -21.0120    18.3400   -23.4820 hc         1 XU4       0.036700
     51 H182       -19.7210    17.7460   -22.4380 hc         1 XU4       0.036700
     52 H233       -20.0090    12.3590   -29.4850 hc         1 XU4       0.050700
     53 H231       -21.5330    12.9890   -30.1320 hc         1 XU4       0.050700
     54 H232       -20.2690    12.4230   -31.2250 hc         1 XU4       0.050700
     55 H251       -18.6380    15.0790   -32.6530 ha         1 XU4       0.116500
     56 H271       -21.9250    17.1390   -34.4590 ha         1 XU4       0.113000
     57 H291       -22.3720    15.4030   -30.5770 ha         1 XU4       0.116500
     58 H031       -17.4090    13.8690   -24.5670 hn         1 XU4       0.313500
     59 H091       -15.7630     9.2460   -28.6260 hn         1 XU4       0.323500
     60 H191       -20.6590    15.9630   -27.0290 hn         1 XU4       0.337500
     61 H1         -18.9070    12.6100   -22.2460 h1         1 XU4       0.021200
     62 H2         -17.8740    10.7570   -21.1580 ho         1 XU4       0.447000
     63 C16        -19.2860    17.5940   -24.5670 c3         1 XU4      -0.059700
@<TRIPOS>BOND
     1     1    12 1   
     2     1    23 1   
     3     1    26 2   
     4     2    16 1   
     5     2    30 1   
     6     2    31 1   
     7     2    63 1   
     8     3    32 1   
     9     3    33 1   
    10     3    34 1   
    11     3    63 1   
    12     4    24 1   
    13     4    28 1   
    14     4    29 2   
    15     5     6 1   
    16     5    18 1   
    17     5    28 1   
    18     5    35 1   
    19     6    19 ar  
    20     6    21 ar  
    21     7    19 ar  
    22     7    20 ar  
    23     7    36 1   
    24     8    20 ar  
    25     8    21 ar  
    26     8    37 1   
    27     9    16 1   
    28     9    22 1   
    29     9    25 2   
    30    10    11 1   
    31    10    15 1   
    32    10    22 1   
    33    10    38 1   
    34    11    12 1   
    35    11    39 1   
    36    11    40 1   
    37    12    13 1   
    38    12    41 1   
    39    13    14 1   
    40    13    42 1   
    41    13    43 1   
    42    14    23 1   
    43    14    44 1   
    44    14    45 1   
    45    15    27 1   
    46    15    46 1   
    47    15    61 1   
    48    16    24 1   
    49    16    47 1   
    50    17    49 1   
    51    17    50 1   
    52    17    51 1   
    53    17    63 1   
    54    18    52 1   
    55    18    53 1   
    56    18    54 1   
    57    19    55 1   
    58    20    56 1   
    59    21    57 1   
    60    22    58 1   
    61    23    59 1   
    62    24    60 1   
    63    27    62 1   
    64    48    63 1   
@<TRIPOS>SUBSTRUCTURE
     1 XU4         1 TEMP              0 ****  ****    0 ROOT
