@<TRIPOS>MOLECULE
XU5
   63    67     1     0     0
SMALL
No Charge or Current Charge


@<TRIPOS>ATOM
      1 Cl          -3.6080    -1.0880     1.9240 cl         1 XU5      -0.161000
      2 C1           0.2320     1.5050    -0.5810 c5         1 XU5       0.038700
      3 C2          -0.5690     2.5350     0.2790 c          1 XU5       0.602100
      4 N3          -1.3840     3.2870    -0.5460 ns         1 XU5      -0.459900
      5 C4          -2.2940     4.3130    -0.0830 cx         1 XU5      -0.009900
      6 C5          -1.6040     5.5300     0.4710 c2         1 XU5       0.428200
      7 O6          -0.5090     2.7010     1.4920 o          1 XU5      -0.589100
      8 C7          -3.5950     4.4630    -0.8420 cx         1 XU5      -0.112900
      9 C8          -3.5940     3.8430     0.5330 cx         1 XU5      -0.112900
     10 N9          -1.0540     6.4050    -0.2940 n2         1 XU5      -0.710100
     11 N10          1.2950     0.7830     0.1800 n          1 XU5      -0.387800
     12 C11          0.9440    -0.6170     0.5060 c5         1 XU5       0.146000
     13 C12         -0.5820    -0.5860     0.2600 c5         1 XU5      -0.311700
     14 C13         -0.6970     0.3230    -0.9940 c5         1 XU5      -0.058400
     15 C15         -2.9370    -2.1050    -0.5940 ca         1 XU5      -0.256500
     16 C16         -3.9360    -1.5890     0.2650 ca         1 XU5       0.199000
     17 C17         -5.2540    -1.4420    -0.2020 ca         1 XU5      -0.124000
     18 C18         -5.5910    -1.8010    -1.5160 ca         1 XU5      -0.049000
     19 C19         -4.6040    -2.3090    -2.3730 ca         1 XU5      -0.128000
     20 C20         -3.2830    -2.4590    -1.9190 ca         1 XU5      -0.013000
     21 O22         -0.4550    -2.8530    -1.1700 o          1 XU5      -0.512000
     22 O23         -1.2310    -2.9800     1.2470 o          1 XU5      -0.512000
     23 O25          2.7740     2.5440     0.1470 o          1 XU5      -0.582100
     24 C26          4.3380     1.2940     2.3500 cx         1 XU5      -0.100400
     25 C27          3.5270     0.5610     1.2950 cx         1 XU5      -0.167700
     26 C28          3.2440     0.3500     2.7750 cx         1 XU5      -0.100400
     27 C29          5.7150    -1.0230    -1.4030 ca         1 XU5      -0.109500
     28 C30          5.5350    -2.3970    -1.1630 ca         1 XU5      -0.070300
     29 C31          4.7000    -2.8090    -0.1090 ca         1 XU5      -0.109500
     30 C32          4.0490    -1.8570     0.6950 ca         1 XU5      -0.100500
     31 C33          4.2230    -0.4800     0.4530 ca         1 XU5      -0.055300
     32 C34          5.0630    -0.0710    -0.6000 ca         1 XU5      -0.100500
     33 H1           0.6390     2.0250    -1.4580 h1         1 XU5       0.085700
     34 HN3         -1.3320     3.0890    -1.5390 hn         1 XU5       0.322500
     35 H5          -1.5820     5.6540     1.5510 h4         1 XU5      -0.039200
     36 H7          -4.0110     5.4620    -0.9460 hc         1 XU5       0.079950
     37 H7A         -3.7730     3.8080    -1.6910 hc         1 XU5       0.079950
     38 H8          -3.7670     2.7720     0.6070 hc         1 XU5       0.079950
     39 H8A         -4.0100     4.4260     1.3510 hc         1 XU5       0.079950
     40 HN9         -0.6430     7.1480     0.2890 hn         1 XU5       0.377400
     41 H11          1.4650    -1.3080    -0.1720 h1         1 XU5       0.070700
     42 H11A         1.1800    -0.8920     1.5420 h1         1 XU5       0.070700
     43 H12         -1.1230    -0.1810     1.1220 h1         1 XU5       0.127700
     44 H13         -1.7280     0.6280    -1.2130 hc         1 XU5       0.070200
     45 H13A        -0.3100    -0.1720    -1.8940 hc         1 XU5       0.070200
     46 H17         -6.0180    -1.0430     0.4600 ha         1 XU5       0.135000
     47 H18         -6.6140    -1.6840    -1.8690 ha         1 XU5       0.123000
     48 H19         -4.8610    -2.5850    -3.3940 ha         1 XU5       0.127000
     49 H20         -2.5360    -2.8530    -2.6070 ha         1 XU5       0.149000
     50 H26          5.3670     0.9780     2.5100 hc         1 XU5       0.084200
     51 H26A         4.1680     2.3590     2.4910 hc         1 XU5       0.084200
     52 H28          3.5480    -0.5840     3.2400 hc         1 XU5       0.084200
     53 H28A         2.3370     0.7850     3.1880 hc         1 XU5       0.084200
     54 H29          6.3620    -0.6890    -2.2120 ha         1 XU5       0.112500
     55 H31          4.5550    -3.8680     0.0900 ha         1 XU5       0.112500
     56 H32          3.4050    -2.1980     1.5020 ha         1 XU5       0.117000
     57 H34          5.2120     0.9880    -0.7970 ha         1 XU5       0.117000
     58 H35          7.2190    -3.6880    -1.6080 hc         1 XU5       0.042700
     59 H35A         5.6550    -4.3500    -2.1130 hc         1 XU5       0.042700
     60 H35B         6.4050    -3.0500    -3.0470 hc         1 XU5       0.042700
     61 S14         -1.2250    -2.2940    -0.0510 sy         1 XU5       1.061500
     62 C24          2.5250     1.3970     0.5000 c          1 XU5       0.643100
     63 C35          6.2410    -3.4270    -2.0310 c3         1 XU5      -0.046800
@<TRIPOS>BOND
     1     1    16 1   
     2     2     3 1   
     3     2    11 1   
     4     2    14 1   
     5     2    33 1   
     6     3     4 1   
     7     3     7 2   
     8     4     5 1   
     9     4    34 1   
    10     5     6 1   
    11     5     8 1   
    12     5     9 1   
    13     6    10 2   
    14     6    35 1   
    15     8     9 1   
    16     8    36 1   
    17     8    37 1   
    18     9    38 1   
    19     9    39 1   
    20    10    40 1   
    21    11    12 1   
    22    11    62 1   
    23    12    13 1   
    24    12    41 1   
    25    12    42 1   
    26    13    14 1   
    27    13    43 1   
    28    13    61 1   
    29    14    44 1   
    30    14    45 1   
    31    15    16 ar  
    32    15    20 ar  
    33    15    61 1   
    34    16    17 ar  
    35    17    18 ar  
    36    17    46 1   
    37    18    19 ar  
    38    18    47 1   
    39    19    20 ar  
    40    19    48 1   
    41    20    49 1   
    42    21    61 2   
    43    22    61 2   
    44    23    62 2   
    45    24    25 1   
    46    24    26 1   
    47    24    50 1   
    48    24    51 1   
    49    25    26 1   
    50    25    31 1   
    51    25    62 1   
    52    26    52 1   
    53    26    53 1   
    54    27    28 ar  
    55    27    32 ar  
    56    27    54 1   
    57    28    29 ar  
    58    28    63 1   
    59    29    30 ar  
    60    29    55 1   
    61    30    31 ar  
    62    30    56 1   
    63    31    32 ar  
    64    32    57 1   
    65    58    63 1   
    66    59    63 1   
    67    60    63 1   
@<TRIPOS>SUBSTRUCTURE
     1 XU5         1 TEMP              0 ****  ****    0 ROOT
