@<TRIPOS>MOLECULE
XU5
   63    67     1     0     0
SMALL
abcg2


@<TRIPOS>ATOM
      1 CL          -3.2620    -1.7310     1.8250 cl         1 XU5      -0.161000
      2 C1           0.2000     1.5060    -0.8550 c5         1 XU5       0.038700
      3 C2          -0.5490     2.4640     0.0720 c          1 XU5       0.602100
      4 N3          -1.2040     3.4500    -0.5640 ns         1 XU5      -0.459900
      5 C4          -2.0230     4.3830     0.1240 cx         1 XU5      -0.009900
      6 C5          -1.3350     5.5060     0.7950 c2         1 XU5       0.428200
      7 O6          -0.6200     2.2600     1.2700 o          1 XU5      -0.589100
      8 C7          -3.3760     4.6850    -0.4780 cx         1 XU5      -0.112900
      9 C8          -3.2890     3.8730     0.7630 cx         1 XU5      -0.112900
     10 N9          -0.0850     5.6690     0.7250 n2         1 XU5      -0.710100
     11 N10          1.2690     0.8430    -0.1430 n          1 XU5      -0.387800
     12 C11          0.9330    -0.5100     0.2750 c5         1 XU5       0.146000
     13 C12         -0.5520    -0.6080    -0.0840 c5         1 XU5      -0.311700
     14 C13         -0.7220     0.3490    -1.2550 c5         1 XU5      -0.058400
     15 C15         -2.7320    -2.2340    -0.8120 ca         1 XU5      -0.256500
     16 C16         -3.6900    -2.0120     0.1760 ca         1 XU5       0.199000
     17 C17         -5.0350    -1.9910    -0.1550 ca         1 XU5      -0.124000
     18 C18         -5.4250    -2.1950    -1.4700 ca         1 XU5      -0.049000
     19 C19         -4.4780    -2.4150    -2.4580 ca         1 XU5      -0.128000
     20 C20         -3.1320    -2.4330    -2.1290 ca         1 XU5      -0.013000
     21 O22         -0.3110    -2.6780    -1.7080 o          1 XU5      -0.512000
     22 O23         -0.7480    -3.1190     0.7180 o          1 XU5      -0.512000
     23 O25          2.3970     2.7630     0.0640 o          1 XU5      -0.582100
     24 C26          4.1650     1.6650     2.0650 cx         1 XU5      -0.100400
     25 C27          3.3250     0.8280     1.1440 cx         1 XU5      -0.167700
     26 C28          3.0590     0.8380     2.6270 cx         1 XU5      -0.100400
     27 C29          5.0850    -1.2380    -1.4780 ca         1 XU5      -0.109500
     28 C30          5.1720    -2.5020    -0.8960 ca         1 XU5      -0.070300
     29 C31          4.6370    -2.6650     0.3780 ca         1 XU5      -0.109500
     30 C32          4.0380    -1.6070     1.0500 ca         1 XU5      -0.100500
     31 C33          3.9580    -0.3470     0.4690 ca         1 XU5      -0.055300
     32 C34          4.4940    -0.1800    -0.8070 ca         1 XU5      -0.100500
     33 H1           0.5720     2.0290    -1.7380 h1         1 XU5       0.085700
     34 HN3         -0.9890     3.6320    -1.5320 hn         1 XU5       0.322500
     35 H5          -2.0050     6.1750     1.3430 h4         1 XU5      -0.039200
     36 H7          -3.7340     5.7040    -0.4140 hc         1 XU5       0.079950
     37 H7A         -3.6130     4.1830    -1.4070 hc         1 XU5       0.079950
     38 H8          -3.4710     2.8090     0.6960 hc         1 XU5       0.079950
     39 H8A         -3.5870     4.3220     1.7020 hc         1 XU5       0.079950
     40 HN9          0.1870     6.4970     1.2470 hn         1 XU5       0.377400
     41 H11          1.5320    -1.2440    -0.2690 h1         1 XU5       0.070700
     42 H11A         1.0930    -0.6590     1.3410 h1         1 XU5       0.070700
     43 H12         -1.1670    -0.3120     0.7660 h1         1 XU5       0.127700
     44 H13         -1.7520     0.6640    -1.4140 hc         1 XU5       0.070200
     45 H13A        -0.3560    -0.0980    -2.1810 hc         1 XU5       0.070200
     46 H17         -5.7750    -1.8170     0.6140 ha         1 XU5       0.135000
     47 H18         -6.4780    -2.1800    -1.7170 ha         1 XU5       0.123000
     48 H19         -4.7800    -2.5730    -3.4840 ha         1 XU5       0.127000
     49 H20         -2.3930    -2.6030    -2.8990 ha         1 XU5       0.149000
     50 H26          5.1800     1.3290     2.2290 hc         1 XU5       0.084200
     51 H26A         4.0460     2.7390     2.0290 hc         1 XU5       0.084200
     52 H28          3.3040    -0.0460     3.2010 hc         1 XU5       0.084200
     53 H28A         2.1620     1.3440     2.9630 hc         1 XU5       0.084200
     54 H29          5.4870    -1.0750    -2.4710 ha         1 XU5       0.112500
     55 H31          4.6760    -3.6370     0.8540 ha         1 XU5       0.112500
     56 H32          3.6170    -1.7890     2.0300 ha         1 XU5       0.117000
     57 H34          4.4520     0.7910    -1.2880 ha         1 XU5       0.117000
     58 H35          6.9200    -3.6170    -1.4580 hc         1 XU5       0.042700
     59 H35A         5.4800    -4.6030    -1.2550 hc         1 XU5       0.042700
     60 H35B         5.6680    -3.5910    -2.6870 hc         1 XU5       0.042700
     61 S14         -0.9840    -2.3050    -0.4670 sy         1 XU5       1.061500
     62 C24          2.3100     1.5720     0.3160 c          1 XU5       0.643100
     63 C35          5.8400    -3.6390    -1.6120 c3         1 XU5      -0.046800
@<TRIPOS>BOND
     1     1    16 1   
     2     2     3 1   
     3     2    11 1   
     4     2    14 1   
     5     2    33 1   
     6     3     4 1   
     7     3     7 2   
     8     4     5 1   
     9     4    34 1   
    10     5     6 1   
    11     5     8 1   
    12     5     9 1   
    13     6    10 2   
    14     6    35 1   
    15     8     9 1   
    16     8    36 1   
    17     8    37 1   
    18     9    38 1   
    19     9    39 1   
    20    10    40 1   
    21    11    12 1   
    22    11    62 1   
    23    12    13 1   
    24    12    41 1   
    25    12    42 1   
    26    13    14 1   
    27    13    43 1   
    28    13    61 1   
    29    14    44 1   
    30    14    45 1   
    31    15    16 ar  
    32    15    20 ar  
    33    15    61 1   
    34    16    17 ar  
    35    17    18 ar  
    36    17    46 1   
    37    18    19 ar  
    38    18    47 1   
    39    19    20 ar  
    40    19    48 1   
    41    20    49 1   
    42    21    61 2   
    43    22    61 2   
    44    23    62 2   
    45    24    25 1   
    46    24    26 1   
    47    24    50 1   
    48    24    51 1   
    49    25    26 1   
    50    25    31 1   
    51    25    62 1   
    52    26    52 1   
    53    26    53 1   
    54    27    28 ar  
    55    27    32 ar  
    56    27    54 1   
    57    28    29 ar  
    58    28    63 1   
    59    29    30 ar  
    60    29    55 1   
    61    30    31 ar  
    62    30    56 1   
    63    31    32 ar  
    64    32    57 1   
    65    58    63 1   
    66    59    63 1   
    67    60    63 1   
@<TRIPOS>SUBSTRUCTURE
     1 XU5         1 TEMP              0 ****  ****    0 ROOT
