@<TRIPOS>MOLECULE
XU8
   49    50     1     0     0
SMALL
abcg2


@<TRIPOS>ATOM
      1 C13         12.0710   -10.9440    61.7450 cc         1 XU8       0.132300
      2 C18         16.5740   -15.1360    55.9510 ca         1 XU8      -0.109500
      3 C17         16.0280   -14.2790    56.8900 ca         1 XU8      -0.098500
      4 C16         13.3090   -13.7280    64.8370 c          1 XU8       0.722000
      5 C15         12.4280   -13.9700    63.5810 c3         1 XU8      -0.098400
      6 C11         13.7240   -10.7770    59.1080 c          1 XU8       0.597100
      7 C12         12.4020    -9.7620    60.8890 c3         1 XU8       0.098700
      8 C1          18.7310   -17.0320    54.8920 c3         1 XU8      -0.081433
      9 C10         15.1280   -11.0640    58.6270 c3         1 XU8      -0.040400
     10 C14         12.8670   -12.0030    62.1010 cd         1 XU8      -0.188000
     11 C3          16.4920   -17.2480    53.7920 c3         1 XU8      -0.081433
     12 C4          17.2080   -18.8970    55.5010 c3         1 XU8      -0.081433
     13 C5          16.6570   -16.5150    56.1730 ca         1 XU8      -0.072300
     14 C6          16.1740   -16.9880    57.3880 ca         1 XU8      -0.109500
     15 C7          15.6280   -16.1270    58.3360 ca         1 XU8      -0.098500
     16 C8          15.5380   -14.7620    58.1020 ca         1 XU8      -0.066300
     17 C9          14.8860   -13.8640    59.1140 c3         1 XU8       0.101900
     18 N1          13.6360    -9.9500    60.1650 ns         1 XU8      -0.491900
     19 N2          12.0750   -12.7620    62.8730 na         1 XU8       0.202800
     20 N3          10.8830   -12.2160    63.0070 nd         1 XU8      -0.222800
     21 N4          10.8670   -11.1180    62.3240 nc         1 XU8      -0.393000
     22 O1          12.7490   -11.2950    58.5850 o          1 XU8      -0.600100
     23 O2          13.6630   -12.5640    65.0710 o          1 XU8      -0.704500
     24 O3          13.5640   -14.7670    65.4690 o          1 XU8      -0.704500
     25 S1          15.8790   -12.4090    59.5970 ss         1 XU8      -0.413000
     26 HC22        16.9410   -14.7130    55.0230 ha         1 XU8       0.107000
     27 HC21        15.9860   -13.2190    56.6680 ha         1 XU8       0.114500
     28 HC20        11.4990   -14.4660    63.8620 h1         1 XU8       0.051700
     29 HC19        12.9510   -14.6340    62.8910 h1         1 XU8       0.051700
     30 HC16        12.5120    -8.8670    61.5010 h1         1 XU8       0.057700
     31 HC17        11.5870    -9.5640    60.1910 h1         1 XU8       0.057700
     32 HC2         19.3100   -17.1520    55.8100 hc         1 XU8       0.033144
     33 HC1         19.1840   -17.6660    54.1260 hc         1 XU8       0.033144
     34 HC3         18.8350   -15.9970    54.5650 hc         1 XU8       0.033144
     35 HC15        15.7920   -10.2090    58.7650 h1         1 XU8       0.082200
     36 HC14        15.1120   -11.3160    57.5680 h1         1 XU8       0.082200
     37 HC18        13.8840   -12.2630    61.8600 h4         1 XU8       0.167000
     38 HC5         15.4400   -17.5120    53.9160 hc         1 XU8       0.033144
     39 HC6         16.5400   -16.2240    53.4210 hc         1 XU8       0.033144
     40 HC4         16.9110   -17.8970    53.0200 hc         1 XU8       0.033144
     41 HC8         16.1840   -19.2440    55.6500 hc         1 XU8       0.033144
     42 HC9         17.6460   -19.5040    54.7070 hc         1 XU8       0.033144
     43 HC7         17.7710   -19.1020    56.4140 hc         1 XU8       0.033144
     44 HC10        16.2150   -18.0430    57.6230 ha         1 XU8       0.107000
     45 HC11        15.2630   -16.5360    59.2710 ha         1 XU8       0.114500
     46 HC13        14.6840   -14.4150    60.0330 h1         1 XU8       0.096200
     47 HC12        13.9220   -13.5040    58.7520 h1         1 XU8       0.096200
     48 HN1         14.4830    -9.6020    60.5860 hn         1 XU8       0.315500
     49 C2          17.2630   -17.4210    55.1080 c3         1 XU8       0.002300
@<TRIPOS>BOND
     1     1     7 1   
     2     1    10 2   
     3     1    21 1   
     4     2     3 ar  
     5     2    13 ar  
     6     2    26 1   
     7     3    16 ar  
     8     3    27 1   
     9     4     5 1   
    10     4    23 1   
    11     4    24 1   
    12     5    19 1   
    13     5    28 1   
    14     5    29 1   
    15     6     9 1   
    16     6    18 1   
    17     6    22 2   
    18     7    18 1   
    19     7    30 1   
    20     7    31 1   
    21     8    32 1   
    22     8    33 1   
    23     8    34 1   
    24     8    49 1   
    25     9    25 1   
    26     9    35 1   
    27     9    36 1   
    28    10    19 1   
    29    10    37 1   
    30    11    38 1   
    31    11    39 1   
    32    11    40 1   
    33    11    49 1   
    34    12    41 1   
    35    12    42 1   
    36    12    43 1   
    37    12    49 1   
    38    13    14 ar  
    39    13    49 1   
    40    14    15 ar  
    41    14    44 1   
    42    15    16 ar  
    43    15    45 1   
    44    16    17 1   
    45    17    25 1   
    46    17    46 1   
    47    17    47 1   
    48    18    48 1   
    49    19    20 1   
    50    20    21 2   
@<TRIPOS>SUBSTRUCTURE
     1 XU8         1 TEMP              0 ****  ****    0 ROOT
