@<TRIPOS>MOLECULE
XU8
   49    50     1     0     0
SMALL
No Charge or Current Charge


@<TRIPOS>ATOM
      1 C13         12.5620   -11.4770    60.6850 cc         1 XU8       0.132300
      2 C18         15.2850   -15.4380    57.0070 ca         1 XU8      -0.109500
      3 C17         15.1470   -14.7410    58.2190 ca         1 XU8      -0.098500
      4 C16         10.8020   -13.9880    63.7800 c          1 XU8       0.722000
      5 C15         11.5150   -14.3900    62.4910 c3         1 XU8      -0.098400
      6 C11         15.2990   -11.1670    58.9140 c          1 XU8       0.597100
      7 C12         13.3800   -10.2750    60.2780 c3         1 XU8       0.098700
      8 C1          16.3800   -15.8560    54.1590 c3         1 XU8      -0.081433
      9 C10         16.7840   -11.5560    58.9850 c3         1 XU8      -0.040400
     10 C14         12.7790   -12.3130    61.7370 cd         1 XU8      -0.188000
     11 C3          15.5100   -17.9650    55.2630 c3         1 XU8      -0.081433
     12 C4          17.9820   -17.5390    55.1160 c3         1 XU8      -0.081433
     13 C5          16.4890   -16.1050    56.6770 ca         1 XU8      -0.072300
     14 C6          17.5520   -16.0480    57.6130 ca         1 XU8      -0.109500
     15 C7          17.4110   -15.3500    58.8240 ca         1 XU8      -0.098500
     16 C8          16.2110   -14.6890    59.1350 ca         1 XU8      -0.066300
     17 C9          16.0670   -13.9280    60.4460 c3         1 XU8       0.101900
     18 N1          14.7940   -10.6030    60.0640 ns         1 XU8      -0.491900
     19 N2          11.7630   -13.2320    61.6330 na         1 XU8       0.202800
     20 N3          10.9690   -12.9460    60.5500 nd         1 XU8      -0.222800
     21 N4          11.4600   -11.8730    59.9800 nc         1 XU8      -0.393000
     22 O1          14.6120   -11.3540    57.9190 o          1 XU8      -0.600100
     23 O2          11.4840   -13.5960    64.7160 o          1 XU8      -0.704500
     24 O3           9.5850   -14.0890    63.8230 o          1 XU8      -0.704500
     25 S1          17.2420   -12.4920    60.5360 ss         1 XU8      -0.413000
     26 HC22        14.4420   -15.4530    56.3220 ha         1 XU8       0.107000
     27 HC21        14.2090   -14.2370    58.4410 ha         1 XU8       0.114500
     28 HC20        10.9000   -15.1220    61.9550 h1         1 XU8       0.051700
     29 HC19        12.4720   -14.8590    62.7480 h1         1 XU8       0.051700
     30 HC16        13.3130    -9.5160    61.0680 h1         1 XU8       0.057700
     31 HC17        12.9680    -9.8370    59.3600 h1         1 XU8       0.057700
     32 HC2         17.1170   -15.0450    54.2050 hc         1 XU8       0.033144
     33 HC1         16.4850   -16.3540    53.1870 hc         1 XU8       0.033144
     34 HC3         15.3810   -15.4070    54.1930 hc         1 XU8       0.033144
     35 HC15        17.3740   -10.6330    58.9380 h1         1 XU8       0.082200
     36 HC14        17.0210   -12.1670    58.1050 h1         1 XU8       0.082200
     37 HC18        13.5380   -12.3280    62.5080 h4         1 XU8       0.167000
     38 HC5         15.6220   -18.6640    56.1010 hc         1 XU8       0.033144
     39 HC6         14.5000   -17.5420    55.3090 hc         1 XU8       0.033144
     40 HC4         15.5850   -18.5390    54.3310 hc         1 XU8       0.033144
     41 HC8         18.1800   -18.2810    55.9000 hc         1 XU8       0.033144
     42 HC9         18.0200   -18.0610    54.1520 hc         1 XU8       0.033144
     43 HC7         18.7910   -16.7990    55.1220 hc         1 XU8       0.033144
     44 HC10        18.5020   -16.5380    57.4240 ha         1 XU8       0.107000
     45 HC11        18.2440   -15.3190    59.5240 ha         1 XU8       0.114500
     46 HC13        16.2690   -14.6070    61.2850 h1         1 XU8       0.096200
     47 HC12        15.0380   -13.5630    60.5570 h1         1 XU8       0.096200
     48 HN1         15.4410   -10.5030    60.8380 hn         1 XU8       0.315500
     49 C2          16.5990   -16.8600    55.3240 c3         1 XU8       0.002300
@<TRIPOS>BOND
     1     1     7 1   
     2     1    10 2   
     3     1    21 1   
     4     2     3 ar  
     5     2    13 ar  
     6     2    26 1   
     7     3    16 ar  
     8     3    27 1   
     9     4     5 1   
    10     4    23 1   
    11     4    24 1   
    12     5    19 1   
    13     5    28 1   
    14     5    29 1   
    15     6     9 1   
    16     6    18 1   
    17     6    22 2   
    18     7    18 1   
    19     7    30 1   
    20     7    31 1   
    21     8    32 1   
    22     8    33 1   
    23     8    34 1   
    24     8    49 1   
    25     9    25 1   
    26     9    35 1   
    27     9    36 1   
    28    10    19 1   
    29    10    37 1   
    30    11    38 1   
    31    11    39 1   
    32    11    40 1   
    33    11    49 1   
    34    12    41 1   
    35    12    42 1   
    36    12    43 1   
    37    12    49 1   
    38    13    14 ar  
    39    13    49 1   
    40    14    15 ar  
    41    14    44 1   
    42    15    16 ar  
    43    15    45 1   
    44    16    17 1   
    45    17    25 1   
    46    17    46 1   
    47    17    47 1   
    48    18    48 1   
    49    19    20 1   
    50    20    21 2   
@<TRIPOS>SUBSTRUCTURE
     1 XU8         1 TEMP              0 ****  ****    0 ROOT
