@<TRIPOS>MOLECULE
XU9
   33    35     1     0     0
SMALL
abcg2


@<TRIPOS>ATOM
      1 C1          53.5880   -26.5120    36.4830 c3         1 XU9       0.166600
      2 C2          54.9590   -26.9870    36.9180 c3         1 XU9      -0.118100
      3 C3          52.3160   -28.6540    33.7670 cc         1 XU9      -0.365800
      4 C5          52.7480   -29.3000    32.5950 cc         1 XU9       0.442500
      5 C6          49.9580   -31.2170    33.1580 cc         1 XU9      -0.063000
      6 C8          49.0700   -30.1200    35.0960 cd         1 XU9      -0.067000
      7 C10         50.0540   -28.1140    36.0320 ch         1 XU9      -0.116000
      8 C12         49.7820   -26.0930    37.7020 cx         1 XU9      -0.063600
      9 C13         48.9530   -26.2440    38.9670 cx         1 XU9      -0.112400
     10 N           50.9780   -30.3180    33.1760 na         1 XU9       0.302400
     11 C           53.0900   -27.5960    34.4110 c          1 XU9       0.646300
     12 O           53.8670   -26.8730    33.8110 o          1 XU9      -0.505000
     13 C11         49.9160   -27.1920    36.7990 c1         1 XU9      -0.058100
     14 C14         48.4400   -25.3930    37.8520 cx         1 XU9      -0.112400
     15 C4          51.1310   -29.3240    34.1340 cd         1 XU9      -0.002000
     16 C7          49.0050   -31.1390    34.1280 cd         1 XU9      -0.163000
     17 C9          50.1000   -29.1920    35.1110 cd         1 XU9       0.055000
     18 N1          51.9630   -30.3050    32.2380 nd         1 XU9      -0.584100
     19 O1          52.8940   -27.5400    35.7330 os         1 XU9      -0.442100
     20 H1          53.6470   -25.6110    35.8760 h1         1 XU9       0.057700
     21 H2          52.9420   -26.3280    37.3390 h1         1 XU9       0.057700
     22 H3          55.4310   -26.2160    37.5320 hc         1 XU9       0.047367
     23 H4          54.8800   -27.8990    37.5130 hc         1 XU9       0.047367
     24 H5          55.5990   -27.1800    36.0570 hc         1 XU9       0.047367
     25 H6          53.6330   -29.0730    32.0200 h4         1 XU9       0.063800
     26 H7          49.9780   -31.9360    32.3550 h4         1 XU9       0.165000
     27 H8          48.2860   -30.0360    35.8350 ha         1 XU9       0.131000
     28 H9          50.6570   -25.4590    37.7820 hc         1 XU9       0.094700
     29 H10         49.3350   -25.7590    39.8540 hc         1 XU9       0.077450
     30 H11         48.4820   -27.2040    39.1300 hc         1 XU9       0.077450
     31 H12         48.4680   -24.3180    37.9660 hc         1 XU9       0.077450
     32 H13         47.6230   -25.7750    37.2550 hc         1 XU9       0.077450
     33 H14         48.1900   -31.8480    34.1300 ha         1 XU9       0.139000
@<TRIPOS>BOND
     1     1     2 1   
     2     1    19 1   
     3     1    20 1   
     4     1    21 1   
     5     2    22 1   
     6     2    23 1   
     7     2    24 1   
     8     3     4 1   
     9     3    11 1   
    10     3    15 2   
    11     4    18 2   
    12     4    25 1   
    13     5    10 1   
    14     5    16 2   
    15     5    26 1   
    16     6    16 1   
    17     6    17 2   
    18     6    27 1   
    19     7    13 3   
    20     7    17 1   
    21     8     9 1   
    22     8    13 1   
    23     8    14 1   
    24     8    28 1   
    25     9    14 1   
    26     9    29 1   
    27     9    30 1   
    28    10    15 1   
    29    10    18 1   
    30    11    12 2   
    31    11    19 1   
    32    14    31 1   
    33    14    32 1   
    34    15    17 1   
    35    16    33 1   
@<TRIPOS>SUBSTRUCTURE
     1 XU9         1 TEMP              0 ****  ****    0 ROOT
