@<TRIPOS>MOLECULE
XU9
   33    35     1     0     0
SMALL
No Charge or Current Charge


@<TRIPOS>ATOM
      1 C1          52.9860   -25.7910    35.8420 c3         1 XU9       0.166600
      2 C2          53.8680   -26.2890    37.0060 c3         1 XU9      -0.118100
      3 C3          52.3560   -28.8790    33.8080 cc         1 XU9      -0.365800
      4 C5          52.9000   -29.5670    32.7190 cc         1 XU9       0.442500
      5 C6          49.9170   -31.3220    32.9230 cc         1 XU9      -0.063000
      6 C8          49.0280   -30.2060    34.9550 cd         1 XU9      -0.067000
      7 C10         50.2070   -28.4800    36.2260 ch         1 XU9      -0.116000
      8 C12         50.2310   -26.9290    38.3880 cx         1 XU9      -0.063600
      9 C13         48.9440   -26.2970    38.8680 cx         1 XU9      -0.112400
     10 N           51.0250   -30.4850    33.0590 na         1 XU9       0.302400
     11 C           53.0810   -27.7350    34.3920 c          1 XU9       0.646300
     12 O           54.2120   -27.4490    34.0250 o          1 XU9      -0.505000
     13 C11         50.2100   -27.7760    37.2160 c1         1 XU9      -0.058100
     14 C14         50.0120   -25.4420    38.2270 cx         1 XU9      -0.112400
     15 C4          51.1470   -29.5020    34.0550 cd         1 XU9      -0.002000
     16 C7          48.9230   -31.1580    33.8820 cd         1 XU9      -0.163000
     17 C9          50.1570   -29.3380    35.0960 cd         1 XU9       0.055000
     18 N1          52.1390   -30.5280    32.2340 nd         1 XU9      -0.584100
     19 O1          52.3550   -26.9260    35.2150 os         1 XU9      -0.442100
     20 H1          53.5830   -25.2110    35.1260 h1         1 XU9       0.057700
     21 H2          52.2190   -25.1210    36.2520 h1         1 XU9       0.057700
     22 H3          54.2830   -25.4360    37.5540 hc         1 XU9       0.047367
     23 H4          53.2790   -26.8920    37.7070 hc         1 XU9       0.047367
     24 H5          54.7050   -26.8950    36.6410 hc         1 XU9       0.047367
     25 H6          53.8480   -29.3730    32.2330 h4         1 XU9       0.063800
     26 H7          49.9120   -32.0270    32.1030 h4         1 XU9       0.165000
     27 H8          48.2260   -30.1540    35.6860 ha         1 XU9       0.131000
     28 H9          50.9410   -27.2440    39.1500 hc         1 XU9       0.094700
     29 H10         48.7960   -26.2040    39.9410 hc         1 XU9       0.077450
     30 H11         48.0350   -26.4810    38.2990 hc         1 XU9       0.077450
     31 H12         50.5820   -24.7750    38.8700 hc         1 XU9       0.077450
     32 H13         49.8160   -25.0540    37.2300 hc         1 XU9       0.077450
     33 H14         48.0390   -31.7880    33.8280 ha         1 XU9       0.139000
@<TRIPOS>BOND
     1     1     2 1   
     2     1    19 1   
     3     1    20 1   
     4     1    21 1   
     5     2    22 1   
     6     2    23 1   
     7     2    24 1   
     8     3     4 1   
     9     3    11 1   
    10     3    15 2   
    11     4    18 2   
    12     4    25 1   
    13     5    10 1   
    14     5    16 2   
    15     5    26 1   
    16     6    16 1   
    17     6    17 2   
    18     6    27 1   
    19     7    13 3   
    20     7    17 1   
    21     8     9 1   
    22     8    13 1   
    23     8    14 1   
    24     8    28 1   
    25     9    14 1   
    26     9    29 1   
    27     9    30 1   
    28    10    15 1   
    29    10    18 1   
    30    11    12 2   
    31    11    19 1   
    32    14    31 1   
    33    14    32 1   
    34    15    17 1   
    35    16    33 1   
@<TRIPOS>SUBSTRUCTURE
     1 XU9         1 TEMP              0 ****  ****    0 ROOT
