@<TRIPOS>MOLECULE
XUC
   51    54     1     0     0
SMALL
No Charge or Current Charge


@<TRIPOS>ATOM
      1 C18        -27.4870   -23.2710    38.0190 c6         1 XUC       0.229800
      2 C16        -27.8060   -24.3830    35.7740 c6         1 XUC       0.229800
      3 C15        -28.8690   -25.1750    36.5730 c6         1 XUC      -0.090900
      4 C14        -29.8280   -24.1930    37.2880 c6         1 XUC       0.198500
      5 C12        -31.9440   -23.9020    38.6170 c5         1 XUC       0.172800
      6 C11        -33.0510   -24.8660    39.0730 c5         1 XUC      -0.088400
      7 C10        -33.2610   -25.6200    37.7440 c5         1 XUC      -0.094400
      8 C02        -33.4230   -30.2200    35.0100 ca         1 XUC       0.117000
      9 C03        -33.6130   -30.2150    36.4010 ca         1 XUC      -0.101000
     10 C04        -32.9330   -29.2780    37.2000 ca         1 XUC      -0.103000
     11 C05        -32.0630   -28.3400    36.6090 ca         1 XUC      -0.074300
     12 C06        -31.8760   -28.3530    35.2120 ca         1 XUC      -0.103000
     13 C07        -32.5550   -29.2900    34.4150 ca         1 XUC      -0.101000
     14 C08        -31.3260   -27.3180    37.4690 c3         1 XUC      -0.029100
     15 C09        -31.7970   -25.8540    37.2430 c5         1 XUC       0.188500
     16 C19        -29.0200   -23.2740    38.2550 c6         1 XUC      -0.090900
     17 C20        -25.9400   -22.7320    36.0760 ca         1 XUC       0.635900
     18 C21        -25.7030   -22.5910    34.6950 ca         1 XUC      -0.242000
     19 C22        -24.5090   -22.0040    34.2550 ca         1 XUC      -0.032000
     20 C23        -23.5950   -21.5780    35.2260 ca         1 XUC      -0.232000
     21 C24        -23.9080   -21.7530    36.5830 ca         1 XUC       0.390900
     22 N13        -30.9740   -24.8480    38.0030 n3         1 XUC      -0.746600
     23 N17        -27.1230   -23.3210    36.5710 nh         1 XUC      -0.797300
     24 N25        -25.0580   -22.3180    37.0050 nb         1 XUC      -0.760000
     25 H1         -27.0450   -24.1380    38.5330 h1         1 XUC       0.049450
     26 H2         -27.0830   -22.3720    38.5070 h1         1 XUC       0.049450
     27 H3         -27.0650   -25.0940    35.3780 h1         1 XUC       0.049450
     28 H4         -28.3060   -23.9200    34.9100 h1         1 XUC       0.049450
     29 H5         -29.4130   -25.8100    35.8630 hc         1 XUC       0.053700
     30 H6         -28.3850   -25.8400    37.3000 hc         1 XUC       0.053700
     31 H7         -30.2450   -23.5480    36.5010 h1         1 XUC       0.024700
     32 H8         -31.5190   -23.3470    39.4640 h1         1 XUC       0.038200
     33 H9         -32.3220   -23.1730    37.8850 h1         1 XUC       0.038200
     34 H10        -33.9520   -24.3450    39.4140 hc         1 XUC       0.052200
     35 H11        -32.7130   -25.5280    39.8790 hc         1 XUC       0.052200
     36 H12        -33.8210   -25.0070    37.0280 hc         1 XUC       0.051200
     37 H13        -33.8300   -26.5470    37.8780 hc         1 XUC       0.051200
     38 H14        -34.2850   -30.9360    36.8600 ha         1 XUC       0.128500
     39 H15        -33.0870   -29.2810    38.2770 ha         1 XUC       0.115000
     40 H16        -31.2030   -27.6370    34.7440 ha         1 XUC       0.115000
     41 H17        -32.4090   -29.2970    33.3370 ha         1 XUC       0.128500
     42 H18        -31.4380   -27.5680    38.5310 hc         1 XUC       0.058200
     43 H19        -30.2540   -27.4130    37.2730 hc         1 XUC       0.058200
     44 H20        -31.7560   -25.6490    36.1640 h1         1 XUC       0.040700
     45 H21        -29.4000   -22.2480    38.1600 hc         1 XUC       0.053700
     46 H22        -29.1910   -23.5660    39.2990 hc         1 XUC       0.053700
     47 H23        -26.4360   -22.9230    33.9690 ha         1 XUC       0.118000
     48 H24        -24.3000   -21.8810    33.1930 ha         1 XUC       0.111000
     49 H25        -22.6540   -21.1160    34.9410 ha         1 XUC       0.123000
     50 H26        -23.2140   -21.4280    37.3580 h4         1 XUC       0.012100
     51 Cl01       -34.2730   -31.3920    34.0120 cl         1 XUC      -0.207000
@<TRIPOS>BOND
     1     1    16 1   
     2     1    23 1   
     3     1    25 1   
     4     1    26 1   
     5     2     3 1   
     6     2    23 1   
     7     2    27 1   
     8     2    28 1   
     9     3     4 1   
    10     3    29 1   
    11     3    30 1   
    12     4    16 1   
    13     4    22 1   
    14     4    31 1   
    15     5     6 1   
    16     5    22 1   
    17     5    32 1   
    18     5    33 1   
    19     6     7 1   
    20     6    34 1   
    21     6    35 1   
    22     7    15 1   
    23     7    36 1   
    24     7    37 1   
    25     8     9 ar  
    26     8    13 ar  
    27     8    51 1   
    28     9    10 ar  
    29     9    38 1   
    30    10    11 ar  
    31    10    39 1   
    32    11    12 ar  
    33    11    14 1   
    34    12    13 ar  
    35    12    40 1   
    36    13    41 1   
    37    14    15 1   
    38    14    42 1   
    39    14    43 1   
    40    15    22 1   
    41    15    44 1   
    42    16    45 1   
    43    16    46 1   
    44    17    18 ar  
    45    17    23 1   
    46    17    24 ar  
    47    18    19 ar  
    48    18    47 1   
    49    19    20 ar  
    50    19    48 1   
    51    20    21 ar  
    52    20    49 1   
    53    21    24 ar  
    54    21    50 1   
@<TRIPOS>SUBSTRUCTURE
     1 XUC         1 TEMP              0 ****  ****    0 ROOT
