@<TRIPOS>MOLECULE
XUC
   51    54     1     0     0
SMALL
abcg2


@<TRIPOS>ATOM
      1 C18        -27.1850   -23.7030    38.1990 c6         1 XUC       0.229800
      2 C16        -27.4940   -24.9210    36.0930 c6         1 XUC       0.229800
      3 C15        -28.5850   -25.5830    36.9290 c6         1 XUC      -0.090900
      4 C14        -29.4980   -24.5100    37.5130 c6         1 XUC       0.198500
      5 C12        -31.5190   -24.0260    38.7780 c5         1 XUC       0.172800
      6 C11        -32.9060   -24.6390    38.8150 c5         1 XUC      -0.088400
      7 C10        -32.9740   -25.3000    37.4460 c5         1 XUC      -0.094400
      8 C02        -33.5110   -29.8130    34.7790 ca         1 XUC       0.117000
      9 C03        -34.0230   -29.6780    36.0590 ca         1 XUC      -0.101000
     10 C04        -33.3450   -28.8850    36.9760 ca         1 XUC      -0.103000
     11 C05        -32.1660   -28.2280    36.6380 ca         1 XUC      -0.074300
     12 C06        -31.6740   -28.3920    35.3430 ca         1 XUC      -0.103000
     13 C07        -32.3360   -29.1760    34.4110 ca         1 XUC      -0.101000
     14 C08        -31.4490   -27.3400    37.6140 c3         1 XUC      -0.029100
     15 C09        -31.5550   -25.8510    37.2500 c5         1 XUC       0.188500
     16 C19        -28.6800   -23.6860    38.5250 c6         1 XUC      -0.090900
     17 C20        -26.1820   -22.8550    36.1110 ca         1 XUC       0.635900
     18 C21        -25.8310   -23.0420    34.7540 ca         1 XUC      -0.242000
     19 C22        -25.0710   -22.0790    34.1270 ca         1 XUC      -0.032000
     20 C23        -24.6520   -20.9520    34.8300 ca         1 XUC      -0.232000
     21 C24        -25.0270   -20.8710    36.1580 ca         1 XUC       0.390900
     22 N13        -30.6960   -25.0470    38.1340 n3         1 XUC      -0.746600
     23 N17        -26.9600   -23.7540    36.7690 nh         1 XUC      -0.797300
     24 N25        -25.7620   -21.7800    36.7840 nb         1 XUC      -0.760000
     25 H1         -26.7100   -24.5710    38.6680 h1         1 XUC       0.049450
     26 H2         -26.6950   -22.8230    38.6030 h1         1 XUC       0.049450
     27 H3         -26.7050   -25.6470    35.8600 h1         1 XUC       0.049450
     28 H4         -27.9360   -24.6130    35.1410 h1         1 XUC       0.049450
     29 H5         -29.1190   -26.2670    36.2680 hc         1 XUC       0.053700
     30 H6         -28.1610   -26.1920    37.7320 hc         1 XUC       0.053700
     31 H7         -29.7810   -23.8380    36.6790 h1         1 XUC       0.024700
     32 H8         -31.1380   -23.7730    39.7690 h1         1 XUC       0.038200
     33 H9         -31.5460   -23.0930    38.1910 h1         1 XUC       0.038200
     34 H10        -33.6870   -23.8960    38.9770 hc         1 XUC       0.052200
     35 H11        -32.9800   -25.3800    39.6140 hc         1 XUC       0.052200
     36 H12        -33.1880   -24.5460    36.6860 hc         1 XUC       0.051200
     37 H13        -33.7440   -26.0680    37.3650 hc         1 XUC       0.051200
     38 H14        -34.9380   -30.1810    36.3430 ha         1 XUC       0.128500
     39 H15        -33.7480   -28.7800    37.9760 ha         1 XUC       0.115000
     40 H16        -30.7530   -27.9000    35.0530 ha         1 XUC       0.115000
     41 H17        -31.9390   -29.2890    33.4110 ha         1 XUC       0.128500
     42 H18        -31.8470   -27.4890    38.6210 hc         1 XUC       0.058200
     43 H19        -30.3930   -27.6210    37.6540 hc         1 XUC       0.058200
     44 H20        -31.2540   -25.7270    36.2010 h1         1 XUC       0.040700
     45 H21        -29.0460   -22.6580    38.5570 hc         1 XUC       0.053700
     46 H22        -28.8130   -24.1050    39.5250 hc         1 XUC       0.053700
     47 H23        -26.1360   -23.9230    34.2090 ha         1 XUC       0.118000
     48 H24        -24.7970   -22.2120    33.0880 ha         1 XUC       0.111000
     49 H25        -24.0550   -20.1780    34.3690 ha         1 XUC       0.123000
     50 H26        -24.7190   -20.0210    36.7580 h4         1 XUC       0.012100
     51 CL01       -34.3500   -30.7970    33.6200 cl         1 XUC      -0.207000
@<TRIPOS>BOND
     1     1    16 1   
     2     1    23 1   
     3     1    25 1   
     4     1    26 1   
     5     2     3 1   
     6     2    23 1   
     7     2    27 1   
     8     2    28 1   
     9     3     4 1   
    10     3    29 1   
    11     3    30 1   
    12     4    16 1   
    13     4    22 1   
    14     4    31 1   
    15     5     6 1   
    16     5    22 1   
    17     5    32 1   
    18     5    33 1   
    19     6     7 1   
    20     6    34 1   
    21     6    35 1   
    22     7    15 1   
    23     7    36 1   
    24     7    37 1   
    25     8     9 ar  
    26     8    13 ar  
    27     8    51 1   
    28     9    10 ar  
    29     9    38 1   
    30    10    11 ar  
    31    10    39 1   
    32    11    12 ar  
    33    11    14 1   
    34    12    13 ar  
    35    12    40 1   
    36    13    41 1   
    37    14    15 1   
    38    14    42 1   
    39    14    43 1   
    40    15    22 1   
    41    15    44 1   
    42    16    45 1   
    43    16    46 1   
    44    17    18 ar  
    45    17    23 1   
    46    17    24 ar  
    47    18    19 ar  
    48    18    47 1   
    49    19    20 ar  
    50    19    48 1   
    51    20    21 ar  
    52    20    49 1   
    53    21    24 ar  
    54    21    50 1   
@<TRIPOS>SUBSTRUCTURE
     1 XUC         1 TEMP              0 ****  ****    0 ROOT
