@<TRIPOS>MOLECULE
XUF
   51    53     1     0     0
SMALL
No Charge or Current Charge


@<TRIPOS>ATOM
      1 C10        -54.0230     6.2360     9.0840 c6         1 XUF       0.235300
      2 C15        -58.5920     5.4660     8.9340 cc         1 XUF      -0.289000
      3 C17        -50.4690     6.5940     5.5070 c3         1 XUF       0.176800
      4 C20        -50.7370     4.9470     2.5270 ca         1 XUF      -0.109000
      5 C21        -50.0200     4.3590     1.4700 ca         1 XUF      -0.084000
      6 C22        -48.9470     5.0490     0.8810 ca         1 XUF      -0.020900
      7 C24        -49.3080     6.9130     2.4010 ca         1 XUF      -0.109000
      8 C01        -47.8890     9.9780     5.0770 c3         1 XUF       0.145900
      9 C04        -51.0380     8.7020     6.7290 c3         1 XUF       0.170800
     10 C06        -52.5350     6.6970     6.9760 c6         1 XUF       0.194500
     11 C07        -52.6810     5.1480     6.9290 c6         1 XUF      -0.094900
     12 C08        -54.1710     4.7450     7.0660 c6         1 XUF       0.235300
     13 C11        -53.0670     7.2120     8.3540 c6         1 XUF      -0.094900
     14 C12        -56.2570     5.3840     8.2910 cc         1 XUF       0.736300
     15 C14        -58.3130     4.6720     7.8470 cd         1 XUF       0.325900
     16 C18        -51.1540     6.8640     4.1450 c3         1 XUF      -0.070100
     17 C19        -50.3850     6.2280     2.9960 ca         1 XUF      -0.060300
     18 C23        -48.5900     6.3260     1.3450 ca         1 XUF      -0.084000
     19 N05        -51.1380     7.1990     6.7030 n3         1 XUF      -0.732600
     20 N09        -54.8920     5.5050     8.1260 nh         1 XUF      -0.784300
     21 N13        -56.9750     4.6270     7.4800 nd         1 XUF      -0.749000
     22 O02        -49.2100     9.4470     5.2680 os         1 XUF      -0.462000
     23 S16        -57.1470     6.2080     9.5550 ss         1 XUF      -0.139400
     24 H1         -53.4210     5.5060     9.6460 h1         1 XUF       0.053950
     25 H2         -54.5940     6.8020     9.8320 h1         1 XUF       0.053950
     26 H3         -59.5500     5.6560     9.4000 h4         1 XUF       0.158000
     27 H4         -50.3700     5.5090     5.6350 h1         1 XUF       0.058700
     28 H5         -49.4330     6.9490     5.4400 h1         1 XUF       0.058700
     29 H6         -51.5640     4.4060     2.9810 ha         1 XUF       0.118500
     30 H7         -50.2950     3.3690     1.1110 ha         1 XUF       0.127500
     31 H8         -49.0260     7.9010     2.7600 ha         1 XUF       0.118500
     32 H9         -47.6580    10.0480     4.0070 h1         1 XUF       0.029033
     33 H10        -47.8060    10.9820     5.5120 h1         1 XUF       0.029033
     34 H11        -47.1380     9.3310     5.5470 h1         1 XUF       0.029033
     35 H12        -48.9060     8.6880     7.2120 h1         1 XUF       0.030700
     36 H13        -49.6300    10.3070     7.1220 h1         1 XUF       0.030700
     37 H14        -51.6510     9.1380     5.9290 h1         1 XUF       0.040200
     38 H15        -51.4580     9.0820     7.6680 h1         1 XUF       0.040200
     39 H16        -53.2070     7.0960     6.2010 h1         1 XUF       0.030700
     40 H17        -52.3210     4.7280     5.9830 hc         1 XUF       0.056450
     41 H18        -52.0840     4.6860     7.7270 hc         1 XUF       0.056450
     42 H19        -54.6600     4.9260     6.0970 h1         1 XUF       0.053950
     43 H20        -54.2360     3.6630     7.2580 h1         1 XUF       0.053950
     44 H21        -52.2310     7.4230     9.0330 hc         1 XUF       0.056450
     45 H22        -53.5860     8.1660     8.1960 hc         1 XUF       0.056450
     46 H23        -59.0410     4.1030     7.2810 h4         1 XUF       0.035100
     47 H24        -51.2330     7.9440     3.9800 hc         1 XUF       0.054200
     48 H25        -52.1800     6.4810     4.1640 hc         1 XUF       0.054200
     49 H26        -47.7590     6.8590     0.8890 ha         1 XUF       0.127500
     50 Br25       -47.9710     4.2480    -0.5560 br         1 XUF      -0.105100
     51 C03        -49.6100     9.3160     6.6490 c3         1 XUF       0.153600
@<TRIPOS>BOND
     1     1    13 1   
     2     1    20 1   
     3     1    24 1   
     4     1    25 1   
     5     2    15 2   
     6     2    23 1   
     7     2    26 1   
     8     3    16 1   
     9     3    19 1   
    10     3    27 1   
    11     3    28 1   
    12     4     5 ar  
    13     4    17 ar  
    14     4    29 1   
    15     5     6 ar  
    16     5    30 1   
    17     6    18 ar  
    18     6    50 1   
    19     7    17 ar  
    20     7    18 ar  
    21     7    31 1   
    22     8    22 1   
    23     8    32 1   
    24     8    33 1   
    25     8    34 1   
    26     9    19 1   
    27     9    37 1   
    28     9    38 1   
    29     9    51 1   
    30    10    11 1   
    31    10    13 1   
    32    10    19 1   
    33    10    39 1   
    34    11    12 1   
    35    11    40 1   
    36    11    41 1   
    37    12    20 1   
    38    12    42 1   
    39    12    43 1   
    40    13    44 1   
    41    13    45 1   
    42    14    20 1   
    43    14    21 2   
    44    14    23 1   
    45    15    21 1   
    46    15    46 1   
    47    16    17 1   
    48    16    47 1   
    49    16    48 1   
    50    18    49 1   
    51    22    51 1   
    52    35    51 1   
    53    36    51 1   
@<TRIPOS>SUBSTRUCTURE
     1 XUF         1 TEMP              0 ****  ****    0 ROOT
