@<TRIPOS>MOLECULE
XUF
   51    53     1     0     0
SMALL
abcg2


@<TRIPOS>ATOM
      1 C10        -53.8510     6.1340     8.9780 c6         1 XUF       0.235300
      2 C15        -58.3780     5.4180     9.1730 cc         1 XUF      -0.289000
      3 C17        -50.5680     6.6360     5.4420 c3         1 XUF       0.176800
      4 C20        -50.7490     4.9470     2.5380 ca         1 XUF      -0.109000
      5 C21        -49.9880     4.3010     1.5720 ca         1 XUF      -0.084000
      6 C22        -48.8760     4.9440     1.0510 ca         1 XUF      -0.020900
      7 C24        -49.2960     6.8410     2.4440 ca         1 XUF      -0.109000
      8 C01        -47.9320     9.9360     5.3100 c3         1 XUF       0.145900
      9 C04        -51.1590     8.6990     6.5980 c3         1 XUF       0.170800
     10 C06        -52.5840     6.7810     6.8460 c6         1 XUF       0.194500
     11 C07        -52.7530     5.2690     6.7100 c6         1 XUF      -0.094900
     12 C08        -54.2180     4.8910     6.8770 c6         1 XUF       0.235300
     13 C11        -53.0350     7.2070     8.2640 c6         1 XUF      -0.094900
     14 C12        -56.0940     5.3630     8.3090 cc         1 XUF       0.736300
     15 C14        -58.1910     4.7790     7.9980 cd         1 XUF       0.325900
     16 C18        -51.2160     6.8900     4.0680 c3         1 XUF      -0.070100
     17 C19        -50.4200     6.2230     2.9870 ca         1 XUF      -0.060300
     18 C23        -48.5210     6.2150     1.4790 ca         1 XUF      -0.084000
     19 N05        -51.2180     7.2430     6.5890 n3         1 XUF      -0.732600
     20 N09        -54.7820     5.5070     8.0670 nh         1 XUF      -0.784300
     21 N13        -56.9150     4.7400     7.5100 nd         1 XUF      -0.749000
     22 O02        -49.2280     9.3990     5.3140 os         1 XUF      -0.462000
     23 S16        -56.8580     6.0260     9.7410 ss         1 XUF      -0.139400
     24 H1         -53.1950     5.3770     9.4190 h1         1 XUF       0.053950
     25 H2         -54.3880     6.5870     9.8110 h1         1 XUF       0.053950
     26 H3         -59.2870     5.5620     9.7340 h4         1 XUF       0.158000
     27 H4         -50.4970     5.5590     5.6040 h1         1 XUF       0.058700
     28 H5         -49.5370     6.9870     5.4080 h1         1 XUF       0.058700
     29 H6         -51.6190     4.4430     2.9420 ha         1 XUF       0.118500
     30 H7         -50.2690     3.3110     1.2370 ha         1 XUF       0.127500
     31 H8         -49.0180     7.8340     2.7790 ha         1 XUF       0.118500
     32 H9         -47.5930     9.9920     4.2760 h1         1 XUF       0.029033
     33 H10        -47.9040    10.9460     5.7380 h1         1 XUF       0.029033
     34 H11        -47.2240     9.3150     5.8720 h1         1 XUF       0.029033
     35 H12        -49.1130     8.6920     7.2630 h1         1 XUF       0.030700
     36 H13        -49.8220    10.2950     7.0670 h1         1 XUF       0.030700
     37 H14        -51.7360     9.1560     5.7770 h1         1 XUF       0.040200
     38 H15        -51.6390     9.0410     7.5160 h1         1 XUF       0.040200
     39 H16        -53.2830     7.2370     6.1230 h1         1 XUF       0.030700
     40 H17        -52.4610     4.9090     5.7240 hc         1 XUF       0.056450
     41 H18        -52.1200     4.7460     7.4320 hc         1 XUF       0.056450
     42 H19        -54.7760     5.2300     6.0000 h1         1 XUF       0.053950
     43 H20        -54.3240     3.8030     6.9210 h1         1 XUF       0.053950
     44 H21        -52.1560     7.4150     8.8780 hc         1 XUF       0.056450
     45 H22        -53.6220     8.1260     8.2170 hc         1 XUF       0.056450
     46 H23        -58.9840     4.3050     7.4350 h4         1 XUF       0.035100
     47 H24        -51.2730     7.9630     3.8770 hc         1 XUF       0.054200
     48 H25        -52.2410     6.5120     4.0560 hc         1 XUF       0.054200
     49 H26        -47.6540     6.7190     1.0720 ha         1 XUF       0.127500
     50 BR25       -47.8280     4.0750    -0.2620 br         1 XUF      -0.105100
     51 C03        -49.7630     9.2950     6.6130 c3         1 XUF       0.153600
@<TRIPOS>BOND
     1     1    13 1   
     2     1    20 1   
     3     1    24 1   
     4     1    25 1   
     5     2    15 2   
     6     2    23 1   
     7     2    26 1   
     8     3    16 1   
     9     3    19 1   
    10     3    27 1   
    11     3    28 1   
    12     4     5 ar  
    13     4    17 ar  
    14     4    29 1   
    15     5     6 ar  
    16     5    30 1   
    17     6    18 ar  
    18     6    50 1   
    19     7    17 ar  
    20     7    18 ar  
    21     7    31 1   
    22     8    22 1   
    23     8    32 1   
    24     8    33 1   
    25     8    34 1   
    26     9    19 1   
    27     9    37 1   
    28     9    38 1   
    29     9    51 1   
    30    10    11 1   
    31    10    13 1   
    32    10    19 1   
    33    10    39 1   
    34    11    12 1   
    35    11    40 1   
    36    11    41 1   
    37    12    20 1   
    38    12    42 1   
    39    12    43 1   
    40    13    44 1   
    41    13    45 1   
    42    14    20 1   
    43    14    21 2   
    44    14    23 1   
    45    15    21 1   
    46    15    46 1   
    47    16    17 1   
    48    16    47 1   
    49    16    48 1   
    50    18    49 1   
    51    22    51 1   
    52    35    51 1   
    53    36    51 1   
@<TRIPOS>SUBSTRUCTURE
     1 XUF         1 TEMP              0 ****  ****    0 ROOT
