@<TRIPOS>MOLECULE
XUH
   47    50     1     0     0
SMALL
No Charge or Current Charge


@<TRIPOS>ATOM
      1 C10        -30.2340     7.8570    -9.3830 ca         1 XUH      -0.080500
      2 C12        -30.6430     5.6950   -10.3460 ca         1 XUH      -0.002200
      3 C14        -31.9070     4.8840   -12.3850 c3         1 XUH       0.050600
      4 C16        -34.2890     5.3790   -13.2860 c3         1 XUH       0.169800
      5 C18        -34.0040     7.9180   -13.2640 c5         1 XUH       0.169500
      6 C19        -33.5310     9.0650   -14.1940 c5         1 XUH      -0.076400
      7 C20        -34.6920     9.2250   -15.2260 c5         1 XUH      -0.068900
      8 C21        -35.9640     8.6670   -14.5080 c5         1 XUH      -0.068900
      9 C22        -35.4890     8.3290   -13.0640 c5         1 XUH      -0.076400
     10 C01        -29.8250     1.2250    -9.2130 ca         1 XUH      -0.145000
     11 C02        -30.4820     1.0090   -10.4510 ca         1 XUH      -0.080500
     12 C03        -30.9450     2.0990   -11.2200 ca         1 XUH      -0.142500
     13 C04        -30.7250     3.3840   -10.7090 ca         1 XUH      -0.002200
     14 C05        -30.0830     3.6170    -9.4940 cp         1 XUH      -0.084500
     15 C06        -29.6200     2.5340    -8.7220 ca         1 XUH      -0.052500
     16 C07        -30.0310     5.0590    -9.2680 cp         1 XUH      -0.084500
     17 C08        -29.5010     5.8210    -8.2090 ca         1 XUH      -0.052500
     18 C09        -29.6080     7.2280    -8.2760 ca         1 XUH      -0.145000
     19 C11        -30.7640     7.0870   -10.4410 ca         1 XUH      -0.142500
     20 C15        -33.4070     5.0690   -12.0380 c3         1 XUH       0.108300
     21 N13        -31.0550     4.6590   -11.2000 na         1 XUH      -0.116600
     22 O23        -33.9020     3.8840   -11.3880 oh         1 XUH      -0.663000
     23 H1         -30.3060     8.9420    -9.4170 ha         1 XUH       0.112500
     24 H2         -31.7900     4.0450   -13.0810 h1         1 XUH       0.064200
     25 H3         -31.5380     5.7810   -12.8970 h1         1 XUH       0.064200
     26 H4         -35.3370     5.4380   -12.9620 h1         1 XUH       0.067700
     27 H5         -34.2230     4.5230   -13.9720 h1         1 XUH       0.067700
     28 H6         -33.4370     7.8960   -12.3240 h1         1 XUH       0.021700
     29 H7         -32.5690     8.8530   -14.6750 hc         1 XUH       0.043200
     30 H8         -33.3960     9.9890   -13.6200 hc         1 XUH       0.043200
     31 H9         -34.4870     8.6580   -16.1420 hc         1 XUH       0.042700
     32 H10        -34.8170    10.2710   -15.5260 hc         1 XUH       0.042700
     33 H11        -36.7880     9.3890   -14.5060 hc         1 XUH       0.042700
     34 H12        -36.3340     7.7700   -15.0190 hc         1 XUH       0.042700
     35 H13        -35.5590     9.2110   -12.4170 hc         1 XUH       0.043200
     36 H14        -36.0980     7.5500   -12.5930 hc         1 XUH       0.043200
     37 H15        -29.4750     0.3740    -8.6340 ha         1 XUH       0.114000
     38 H16        -30.6320    -0.0070   -10.8110 ha         1 XUH       0.112500
     39 H17        -31.4500     1.9390   -12.1690 ha         1 XUH       0.118000
     40 H18        -29.1170     2.7010    -7.7730 ha         1 XUH       0.116500
     41 H19        -29.0210     5.3370    -7.3610 ha         1 XUH       0.116500
     42 H20        -29.2050     7.8360    -7.4700 ha         1 XUH       0.114000
     43 H21        -31.2440     7.5610   -11.2930 ha         1 XUH       0.118000
     44 H22        -33.4900     5.9150   -11.3430 h1         1 XUH       0.043700
     45 H23        -32.9370     6.5160   -14.3460 hn         1 XUH       0.412000
     46 H25        -33.2370     3.6370   -10.7080 ho         1 XUH       0.454000
     47 N17        -33.8970     6.6270   -14.0030 n7         1 XUH      -0.875400
@<TRIPOS>BOND
     1     1    18 ar  
     2     1    19 ar  
     3     1    23 1   
     4     2    16 ar  
     5     2    19 ar  
     6     2    21 1   
     7     3    20 1   
     8     3    21 1   
     9     3    24 1   
    10     3    25 1   
    11     4    20 1   
    12     4    26 1   
    13     4    27 1   
    14     4    47 1   
    15     5     6 1   
    16     5     9 1   
    17     5    28 1   
    18     5    47 1   
    19     6     7 1   
    20     6    29 1   
    21     6    30 1   
    22     7     8 1   
    23     7    31 1   
    24     7    32 1   
    25     8     9 1   
    26     8    33 1   
    27     8    34 1   
    28     9    35 1   
    29     9    36 1   
    30    10    11 ar  
    31    10    15 ar  
    32    10    37 1   
    33    11    12 ar  
    34    11    38 1   
    35    12    13 ar  
    36    12    39 1   
    37    13    14 ar  
    38    13    21 1   
    39    14    15 ar  
    40    14    16 1   
    41    15    40 1   
    42    16    17 ar  
    43    17    18 ar  
    44    17    41 1   
    45    18    42 1   
    46    19    43 1   
    47    20    22 1   
    48    20    44 1   
    49    22    46 1   
    50    45    47 1   
@<TRIPOS>SUBSTRUCTURE
     1 XUH         1 TEMP              0 ****  ****    0 ROOT
