@<TRIPOS>MOLECULE
XUH
   47    50     1     0     0
SMALL
abcg2


@<TRIPOS>ATOM
      1 C10        -30.3010     7.8240    -9.3740 ca         1 XUH      -0.080500
      2 C12        -30.7100     5.6620   -10.2860 ca         1 XUH      -0.002200
      3 C14        -31.9060     4.9030   -12.3640 c3         1 XUH       0.050600
      4 C16        -34.1740     5.3620   -13.4040 c3         1 XUH       0.169800
      5 C18        -33.9060     7.8430   -13.3890 c5         1 XUH       0.169500
      6 C19        -33.5110     8.9920   -14.3220 c5         1 XUH      -0.076400
      7 C20        -34.7740     9.2940   -15.1580 c5         1 XUH      -0.068900
      8 C21        -35.9650     8.7210   -14.3440 c5         1 XUH      -0.068900
      9 C22        -35.3530     8.1990   -13.0310 c5         1 XUH      -0.076400
     10 C01        -29.8000     1.2600    -9.2210 ca         1 XUH      -0.145000
     11 C02        -30.5050     1.0790   -10.4200 ca         1 XUH      -0.080500
     12 C03        -31.0030     2.1560   -11.1410 ca         1 XUH      -0.142500
     13 C04        -30.7790     3.4360   -10.6340 ca         1 XUH      -0.002200
     14 C05        -30.0720     3.6350    -9.4200 cp         1 XUH      -0.084500
     15 C06        -29.5820     2.5350    -8.7160 ca         1 XUH      -0.052500
     16 C07        -30.0290     5.0620    -9.1960 cp         1 XUH      -0.084500
     17 C08        -29.4860     5.8670    -8.1940 ca         1 XUH      -0.052500
     18 C09        -29.6260     7.2450    -8.2880 ca         1 XUH      -0.145000
     19 C11        -30.8510     7.0450   -10.3840 ca         1 XUH      -0.142500
     20 C15        -33.4020     5.0820   -12.1100 c3         1 XUH       0.108300
     21 N13        -31.1530     4.6700   -11.1460 na         1 XUH      -0.116600
     22 O23        -33.9750     3.8920   -11.5580 oh         1 XUH      -0.663000
     23 H1         -30.3980     8.9010    -9.4260 ha         1 XUH       0.112500
     24 H2         -31.7500     4.0600   -13.0370 h1         1 XUH       0.064200
     25 H3         -31.5050     5.7930   -12.8500 h1         1 XUH       0.064200
     26 H4         -35.2350     5.3780   -13.1480 h1         1 XUH       0.067700
     27 H5         -34.0250     4.5140   -14.0780 h1         1 XUH       0.067700
     28 H6         -33.2750     7.8350   -12.4920 h1         1 XUH       0.021700
     29 H7         -32.6420     8.7440   -14.9350 hc         1 XUH       0.043200
     30 H8         -33.2420     9.8580   -13.7120 hc         1 XUH       0.043200
     31 H9         -34.7140     8.8140   -16.1350 hc         1 XUH       0.042700
     32 H10        -34.8810    10.3650   -15.3350 hc         1 XUH       0.042700
     33 H11        -36.7360     9.4700   -14.1560 hc         1 XUH       0.042700
     34 H12        -36.4380     7.9040   -14.8900 hc         1 XUH       0.042700
     35 H13        -35.3300     8.9930   -12.2800 hc         1 XUH       0.043200
     36 H14        -35.9110     7.3660   -12.6010 hc         1 XUH       0.043200
     37 H15        -29.4280     0.3970    -8.6850 ha         1 XUH       0.114000
     38 H16        -30.6670     0.0750   -10.7940 ha         1 XUH       0.112500
     39 H17        -31.5560     2.0010   -12.0570 ha         1 XUH       0.118000
     40 H18        -29.0410     2.6750    -7.7880 ha         1 XUH       0.116500
     41 H19        -28.9630     5.4220    -7.3560 ha         1 XUH       0.116500
     42 H20        -29.2120     7.8830    -7.5180 ha         1 XUH       0.114000
     43 H21        -31.3720     7.5040   -11.2140 ha         1 XUH       0.118000
     44 H22        -33.5440     5.9070   -11.4060 h1         1 XUH       0.043700
     45 H23        -32.9140     6.4890   -14.5480 hn         1 XUH       0.412000
     46 H25        -33.6140     3.7550   -10.6740 ho         1 XUH       0.454000
     47 N17        -33.8310     6.5770   -14.1280 n7         1 XUH      -0.875400
@<TRIPOS>BOND
     1     1    18 ar  
     2     1    19 ar  
     3     1    23 1   
     4     2    16 ar  
     5     2    19 ar  
     6     2    21 1   
     7     3    20 1   
     8     3    21 1   
     9     3    24 1   
    10     3    25 1   
    11     4    20 1   
    12     4    26 1   
    13     4    27 1   
    14     4    47 1   
    15     5     6 1   
    16     5     9 1   
    17     5    28 1   
    18     5    47 1   
    19     6     7 1   
    20     6    29 1   
    21     6    30 1   
    22     7     8 1   
    23     7    31 1   
    24     7    32 1   
    25     8     9 1   
    26     8    33 1   
    27     8    34 1   
    28     9    35 1   
    29     9    36 1   
    30    10    11 ar  
    31    10    15 ar  
    32    10    37 1   
    33    11    12 ar  
    34    11    38 1   
    35    12    13 ar  
    36    12    39 1   
    37    13    14 ar  
    38    13    21 1   
    39    14    15 ar  
    40    14    16 1   
    41    15    40 1   
    42    16    17 ar  
    43    17    18 ar  
    44    17    41 1   
    45    18    42 1   
    46    19    43 1   
    47    20    22 1   
    48    20    44 1   
    49    22    46 1   
    50    45    47 1   
@<TRIPOS>SUBSTRUCTURE
     1 XUH         1 TEMP              0 ****  ****    0 ROOT
