@<TRIPOS>MOLECULE
XUK
   17    18     1     0     0
SMALL
No Charge or Current Charge


@<TRIPOS>ATOM
      1 C4          21.0290    30.8260    38.6490 cc         1 XUK      -0.178400
      2 C5          19.8280    30.1440    38.6810 cd         1 XUK       0.007600
      3 C7          21.6030    28.4640    41.2850 cc         1 XUK      -0.042000
      4 C8          22.8870    28.7610    41.6790 cd         1 XUK      -0.140000
      5 C9          23.6040    29.8240    41.0130 cd         1 XUK       0.262000
      6 C10         23.0560    30.5740    39.9800 cc         1 XUK      -0.207000
      7 C2          21.0340    29.2260    40.2310 cc         1 XUK      -0.096000
      8 N1          19.8410    29.1530    39.6650 nd         1 XUK      -0.284600
      9 N11         24.8720    30.0650    41.4530 nv         1 XUK      -1.054000
     10 N3          21.7510    30.2180    39.6350 na         1 XUK       0.183100
     11 Br6         21.5570    32.2510    37.5250 br         1 XUK      -0.010700
     12 H5          18.9560    30.3090    38.0520 h4         1 XUK       0.236000
     13 H7          21.0270    27.6730    41.7580 ha         1 XUK       0.146000
     14 H8          23.3500    28.1970    42.4810 ha         1 XUK       0.126000
     15 H10         23.5410    31.3770    39.4450 h4         1 XUK       0.155000
     16 H112        25.3890    30.8730    41.1090 hn         1 XUK       0.449000
     17 H111        25.2260    29.5960    42.2850 hn         1 XUK       0.449000
@<TRIPOS>BOND
     1     1     2 2   
     2     1    10 1   
     3     1    11 1   
     4     2     8 1   
     5     2    12 1   
     6     3     4 2   
     7     3     7 1   
     8     3    13 1   
     9     4     5 1   
    10     4    14 1   
    11     5     6 2   
    12     5     9 1   
    13     6    10 1   
    14     6    15 1   
    15     7     8 2   
    16     7    10 1   
    17     9    16 1   
    18     9    17 1   
@<TRIPOS>SUBSTRUCTURE
     1 XUK         1 TEMP              0 ****  ****    0 ROOT
