@<TRIPOS>MOLECULE
XUK
   17    18     1     0     0
SMALL
abcg2


@<TRIPOS>ATOM
      1 C4          20.9950    30.8030    38.6600 cc         1 XUK      -0.178400
      2 C5          19.7970    30.1320    38.7100 cd         1 XUK       0.007600
      3 C7          21.6100    28.4970    41.2430 cc         1 XUK      -0.042000
      4 C8          22.8860    28.7590    41.6320 cd         1 XUK      -0.140000
      5 C9          23.6490    29.7940    41.0090 cd         1 XUK       0.262000
      6 C10         23.0740    30.5250    40.0070 cc         1 XUK      -0.207000
      7 C2          21.0280    29.2490    40.2040 cc         1 XUK      -0.096000
      8 N1          19.8210    29.1790    39.6590 nd         1 XUK      -0.284600
      9 N11         24.9610    29.9870    41.3940 nv         1 XUK      -1.054000
     10 N3          21.7900    30.2380    39.6190 na         1 XUK       0.183100
     11 BR6         21.5490    32.1890    37.5690 br         1 XUK      -0.010700
     12 H5          18.9320    30.3130    38.0890 h4         1 XUK       0.236000
     13 H7          21.0240    27.7180    41.7110 ha         1 XUK       0.146000
     14 H8          23.3400    28.1800    42.4260 ha         1 XUK       0.126000
     15 H10         23.5840    31.3240    39.4910 h4         1 XUK       0.155000
     16 H112        25.3590    30.8800    41.1450 hn         1 XUK       0.449000
     17 H111        25.1520    29.7630    42.3580 hn         1 XUK       0.449000
@<TRIPOS>BOND
     1     1     2 2   
     2     1    10 1   
     3     1    11 1   
     4     2     8 1   
     5     2    12 1   
     6     3     4 2   
     7     3     7 1   
     8     3    13 1   
     9     4     5 1   
    10     4    14 1   
    11     5     6 2   
    12     5     9 1   
    13     6    10 1   
    14     6    15 1   
    15     7     8 2   
    16     7    10 1   
    17     9    16 1   
    18     9    17 1   
@<TRIPOS>SUBSTRUCTURE
     1 XUK         1 TEMP              0 ****  ****    0 ROOT
