@<TRIPOS>MOLECULE
XUL
   20    19     1     0     0
SMALL
No Charge or Current Charge


@<TRIPOS>ATOM
      1 C1          37.1010    33.7700    56.6620 c3         1 XUL       0.066600
      2 C2          35.7590    33.4680    55.9200 c          1 XUL       0.579100
      3 C3          34.8680    32.3350    56.5140 c3         1 XUL       0.077300
      4 C4          33.8480    32.9130    57.5500 c3         1 XUL       0.151300
      5 C5          32.7680    31.8880    58.0120 c3         1 XUL       0.122600
      6 O1          37.7760    34.9720    56.2020 oh         1 XUL      -0.638000
      7 O2          35.4980    33.9620    54.8240 o          1 XUL      -0.496100
      8 O3          35.6450    31.2270    57.0680 oh         1 XUL      -0.710000
      9 O4          34.5360    33.4370    58.7020 oh         1 XUL      -0.648000
     10 O5          32.0390    31.3580    56.8920 oh         1 XUL      -0.725000
     11 H11         36.8810    33.8480    57.7330 h1         1 XUL       0.052700
     12 H12         37.7470    32.8930    56.5300 h1         1 XUL       0.052700
     13 H3          34.2840    31.9670    55.6590 h1         1 XUL       0.076700
     14 H4          33.3110    33.7320    57.0500 h1         1 XUL       0.064700
     15 H51         33.2520    31.0730    58.5690 h1         1 XUL       0.030700
     16 H52         32.0770    32.3900    58.7020 h1         1 XUL       0.030700
     17 HO1         38.6050    35.0650    56.7250 ho         1 XUL       0.443000
     18 HO3         35.0070    30.5290    57.3450 ho         1 XUL       0.510000
     19 HO4         33.8600    33.8400    59.2920 ho         1 XUL       0.446000
     20 HO5         31.3260    30.7790    57.2530 ho         1 XUL       0.510000
@<TRIPOS>BOND
     1     1     2 1   
     2     1     6 1   
     3     1    11 1   
     4     1    12 1   
     5     2     3 1   
     6     2     7 2   
     7     3     4 1   
     8     3     8 1   
     9     3    13 1   
    10     4     5 1   
    11     4     9 1   
    12     4    14 1   
    13     5    10 1   
    14     5    15 1   
    15     5    16 1   
    16     6    17 1   
    17     8    18 1   
    18     9    19 1   
    19    10    20 1   
@<TRIPOS>SUBSTRUCTURE
     1 XUL         1 TEMP              0 ****  ****    0 ROOT
