@<TRIPOS>MOLECULE
XUL
   20    19     1     0     0
SMALL
abcg2


@<TRIPOS>ATOM
      1 C1          37.1330    33.5930    56.6610 c3         1 XUL       0.066600
      2 C2          35.7120    33.5700    56.1630 c          1 XUL       0.579100
      3 C3          34.8280    32.4130    56.6120 c3         1 XUL       0.077300
      4 C4          33.7090    32.9800    57.4900 c3         1 XUL       0.151300
      5 C5          32.7770    31.9000    58.0240 c3         1 XUL       0.122600
      6 O1          37.7550    34.7640    56.2220 oh         1 XUL      -0.638000
      7 O2          35.2680    34.4280    55.4390 o          1 XUL      -0.496100
      8 O3          35.6000    31.4570    57.2930 oh         1 XUL      -0.710000
      9 O4          34.3310    33.6660    58.5530 oh         1 XUL      -0.648000
     10 O5          32.1850    31.2390    56.9300 oh         1 XUL      -0.725000
     11 H11         37.1080    33.5070    57.7560 h1         1 XUL       0.052700
     12 H12         37.6310    32.6830    56.2980 h1         1 XUL       0.052700
     13 H3          34.3740    31.9940    55.7070 h1         1 XUL       0.076700
     14 H4          33.1220    33.6640    56.8630 h1         1 XUL       0.064700
     15 H51         33.3430    31.2140    58.6660 h1         1 XUL       0.030700
     16 H52         32.0220    32.3810    58.6610 h1         1 XUL       0.030700
     17 HO1         38.6700    34.7360    56.5130 ho         1 XUL       0.443000
     18 HO3         35.2780    30.5790    57.0700 ho         1 XUL       0.510000
     19 HO4         33.6680    34.1840    59.0200 ho         1 XUL       0.446000
     20 HO5         31.6750    30.4960    57.2640 ho         1 XUL       0.510000
@<TRIPOS>BOND
     1     1     2 1   
     2     1     6 1   
     3     1    11 1   
     4     1    12 1   
     5     2     3 1   
     6     2     7 2   
     7     3     4 1   
     8     3     8 1   
     9     3    13 1   
    10     4     5 1   
    11     4     9 1   
    12     4    14 1   
    13     5    10 1   
    14     5    15 1   
    15     5    16 1   
    16     6    17 1   
    17     8    18 1   
    18     9    19 1   
    19    10    20 1   
@<TRIPOS>SUBSTRUCTURE
     1 XUL         1 TEMP              0 ****  ****    0 ROOT
