@<TRIPOS>MOLECULE
XUM
   97   101     1     0     0
SMALL
bcc


@<TRIPOS>ATOM
      1 C10          5.6830     0.3750   -14.5030 c3         1 XUM       0.098700
      2 C13          1.0080    -2.1880   -11.9610 c5         1 XUM       0.129400
      3 C15          2.0860    -3.1130   -10.1800 c5         1 XUM       0.325900
      4 C17          4.3590    -3.2320   -10.4030 c5         1 XUM       0.134400
      5 C20          7.4180    -2.0030   -12.5580 ca         1 XUM      -0.087000
      6 C21          7.5510    -2.4040   -11.2400 ca         1 XUM      -0.180500
      7 C22          7.5710    -1.4540   -10.2250 ca         1 XUM       0.127100
      8 C24          7.3880     0.2790   -11.8790 ca         1 XUM      -0.087000
      9 C26          2.6310     4.4330   -17.7250 c3         1 XUM      -0.092100
     10 C28          7.2570    -1.0710    -7.8990 c3         1 XUM      -0.075800
     11 C01          9.8350     5.8060   -17.9280 ca         1 XUM       0.109100
     12 C02          8.7360     6.5480   -17.5120 ca         1 XUM       0.031100
     13 C03          7.8180     6.0560   -16.6220 ca         1 XUM      -0.027000
     14 C04          8.0500     4.7530   -16.1560 ca         1 XUM      -0.311500
     15 C05          9.1470     4.0070   -16.5610 ca         1 XUM      -0.026000
     16 C06         10.0680     4.5310   -17.4710 ca         1 XUM      -0.142000
     17 C08          6.1610     1.9150   -16.5170 c3         1 XUM       0.214800
     18 C09          5.3430     0.7510   -15.9530 c3         1 XUM       0.131100
     19 C11          3.8270    -0.2390   -13.0080 c          1 XUM       0.757100
     20 C12          2.1040    -1.1810   -11.6620 c5         1 XUM       0.136100
     21 C14          2.5810    -1.6480   -10.2770 c5         1 XUM      -0.145700
     22 C16          4.0840    -1.7800   -10.0400 c5         1 XUM      -0.098400
     23 C18          7.0790    -0.2390   -14.3290 c3         1 XUM      -0.035100
     24 C19          7.3180    -0.6570   -12.9040 ca         1 XUM      -0.113300
     25 C23          7.5130    -0.1030   -10.5480 ca         1 XUM      -0.180500
     26 C25          3.4340     3.5510   -16.7740 c3         1 XUM      -0.062700
     27 C27          2.8440     3.5770   -15.3700 c3         1 XUM      -0.092100
     28 C29          8.4300    -4.2980    -6.5680 c3         1 XUM       0.209400
     29 C30          7.5990    -0.4980    -4.5860 c3         1 XUM       0.209400
     30 C31          9.7990    -4.6790    -6.0610 c3         1 XUM      -0.100600
     31 C32          6.9850     0.7180    -3.9380 c3         1 XUM      -0.100600
     32 C33          9.8330     7.7280   -19.0380 c5         1 XUM       0.326200
     33 N34          5.7760     3.2090   -15.9510 n3         1 XUM      -0.737500
     34 N35          4.6840    -0.5470   -13.9970 ns         1 XUM      -0.572900
     35 O36          6.1760     5.1100   -14.3710 o          1 XUM      -0.603800
     36 O37          7.5940     3.0460   -14.2350 o          1 XUM      -0.603800
     37 O38          5.5450    -0.3300   -16.8370 oh         1 XUM      -0.606800
     38 O39          3.7020     0.8530   -12.4920 o          1 XUM      -0.591000
     39 O40          3.1040    -1.3170   -12.6680 os         1 XUM      -0.430900
     40 O41          1.4620    -3.4050   -11.4110 os         1 XUM      -0.416600
     41 O42          3.1880    -3.9260    -9.9860 os         1 XUM      -0.380600
     42 O43          8.7780     7.7690   -18.0870 os         1 XUM      -0.314900
     43 O45         10.5780     6.5430   -18.7730 os         1 XUM      -0.312900
     44 O46          8.1590    -2.9470    -6.1490 os         1 XUM      -0.597700
     45 O47          6.5620    -1.2190    -5.2790 os         1 XUM      -0.597700
     46 O48          5.6270    -3.0280    -6.8200 o          1 XUM      -0.772300
     47 P49          6.8050    -2.1810    -6.5250 p5         1 XUM       1.454300
     48 S50          6.8820     4.0290   -15.0380 sy         1 XUM       1.308200
     49 H101         5.6170     1.2810   -13.9010 h1         1 XUM       0.101700
     50 H132         0.8170    -2.3200   -13.0270 h1         1 XUM       0.057200
     51 H131         0.0760    -1.8550   -11.4870 h1         1 XUM       0.057200
     52 H151         1.3840    -3.2910    -9.3570 h2         1 XUM       0.081700
     53 H171         5.2100    -3.6540    -9.8690 h1         1 XUM       0.055700
     54 H172         4.5330    -3.3570   -11.4760 h1         1 XUM       0.055700
     55 H201         7.3730    -2.7590   -13.3340 ha         1 XUM       0.142000
     56 H211         7.6060    -3.4570   -10.9900 ha         1 XUM       0.140500
     57 H241         7.3350     1.3360   -12.1110 ha         1 XUM       0.142000
     58 H262         1.5900     4.1100   -17.7670 hc         1 XUM       0.040367
     59 H263         2.6420     5.4750   -17.3960 hc         1 XUM       0.040367
     60 H261         3.0300     4.3980   -18.7390 hc         1 XUM       0.040367
     61 H281         8.0600    -0.3770    -7.6280 h1         1 XUM       0.067700
     62 H282         6.3720    -0.4740    -8.1500 h1         1 XUM       0.067700
     63 H031         6.9760     6.6480   -16.2910 ha         1 XUM       0.174000
     64 H051         9.3150     3.0130   -16.1700 ha         1 XUM       0.156000
     65 H061        10.9290     3.9590   -17.7860 ha         1 XUM       0.159000
     66 H071         5.2650     4.0330   -17.8140 h1         1 XUM       0.051200
     67 H072         4.9000     5.0550   -16.4320 h1         1 XUM       0.051200
     68 H081         7.2290     1.7280   -16.3980 h1         1 XUM       0.061200
     69 H082         5.9840     1.9560   -17.5950 h1         1 XUM       0.061200
     70 H091         4.2890     1.0520   -15.9520 h1         1 XUM       0.055700
     71 H121         1.7260    -0.1600   -11.6450 h1         1 XUM       0.082700
     72 H141         2.1090    -1.0210    -9.5200 hc         1 XUM       0.075700
     73 H162         4.2990    -1.6200    -8.9830 hc         1 XUM       0.064200
     74 H161         4.6970    -1.0760   -10.6000 hc         1 XUM       0.064200
     75 H182         7.1790    -1.1040   -14.9870 hc         1 XUM       0.062700
     76 H181         7.8290     0.4870   -14.6430 hc         1 XUM       0.062700
     77 H231         7.5540     0.6630    -9.7840 ha         1 XUM       0.140500
     78 H251         3.3900     2.5280   -17.1620 hc         1 XUM       0.046700
     79 H273         3.3870     2.9290   -14.6820 hc         1 XUM       0.040367
     80 H271         2.8660     4.5900   -14.9620 hc         1 XUM       0.040367
     81 H272         1.8050     3.2470   -15.3830 hc         1 XUM       0.040367
     82 H291         8.3910    -4.3640    -7.6560 h1         1 XUM       0.040450
     83 H292         7.6680    -4.9650    -6.1610 h1         1 XUM       0.040450
     84 H301         8.0410    -1.1590    -3.8390 h1         1 XUM       0.040450
     85 H302         8.3910    -0.1980    -5.2760 h1         1 XUM       0.040450
     86 H311        10.0170    -5.7050    -6.3570 hc         1 XUM       0.047033
     87 H312        10.5730    -4.0370    -6.4800 hc         1 XUM       0.047033
     88 H313         9.8500    -4.6250    -4.9740 hc         1 XUM       0.047033
     89 H321         7.7560     1.2590    -3.3890 hc         1 XUM       0.047033
     90 H323         6.5650     1.3950    -4.6820 hc         1 XUM       0.047033
     91 H322         6.2020     0.4440    -3.2320 hc         1 XUM       0.047033
     92 H331        10.4740     8.6000   -18.9180 h2         1 XUM       0.071200
     93 H332         9.4210     7.6860   -20.0520 h2         1 XUM       0.071200
     94 H351         4.7400    -1.5130   -14.2840 hn         1 XUM       0.323500
     95 H381         4.8400    -0.9720   -16.7120 ho         1 XUM       0.414000
     96 O44          7.6360    -1.9270    -8.9550 os         1 XUM      -0.312900
     97 C07          4.8860     4.0240   -16.7860 c3         1 XUM       0.204800
@<TRIPOS>BOND
     1     1    18 1   
     2     1    23 1   
     3     1    34 1   
     4     1    49 1   
     5     2    20 1   
     6     2    40 1   
     7     2    50 1   
     8     2    51 1   
     9     3    21 1   
    10     3    40 1   
    11     3    41 1   
    12     3    52 1   
    13     4    22 1   
    14     4    41 1   
    15     4    53 1   
    16     4    54 1   
    17     5     6 ar  
    18     5    24 ar  
    19     5    55 1   
    20     6     7 ar  
    21     6    56 1   
    22     7    25 ar  
    23     7    96 1   
    24     8    24 ar  
    25     8    25 ar  
    26     8    57 1   
    27     9    26 1   
    28     9    58 1   
    29     9    59 1   
    30     9    60 1   
    31    10    47 1   
    32    10    61 1   
    33    10    62 1   
    34    10    96 1   
    35    11    12 ar  
    36    11    16 ar  
    37    11    43 1   
    38    12    13 ar  
    39    12    42 1   
    40    13    14 ar  
    41    13    63 1   
    42    14    15 ar  
    43    14    48 1   
    44    15    16 ar  
    45    15    64 1   
    46    16    65 1   
    47    17    18 1   
    48    17    33 1   
    49    17    68 1   
    50    17    69 1   
    51    18    37 1   
    52    18    70 1   
    53    19    34 1   
    54    19    38 2   
    55    19    39 1   
    56    20    21 1   
    57    20    39 1   
    58    20    71 1   
    59    21    22 1   
    60    21    72 1   
    61    22    73 1   
    62    22    74 1   
    63    23    24 1   
    64    23    75 1   
    65    23    76 1   
    66    25    77 1   
    67    26    27 1   
    68    26    78 1   
    69    26    97 1   
    70    27    79 1   
    71    27    80 1   
    72    27    81 1   
    73    28    30 1   
    74    28    44 1   
    75    28    82 1   
    76    28    83 1   
    77    29    31 1   
    78    29    45 1   
    79    29    84 1   
    80    29    85 1   
    81    30    86 1   
    82    30    87 1   
    83    30    88 1   
    84    31    89 1   
    85    31    90 1   
    86    31    91 1   
    87    32    42 1   
    88    32    43 1   
    89    32    92 1   
    90    32    93 1   
    91    33    48 1   
    92    33    97 1   
    93    34    94 1   
    94    35    48 2   
    95    36    48 2   
    96    37    95 1   
    97    44    47 1   
    98    45    47 1   
    99    46    47 2   
   100    66    97 1   
   101    67    97 1   
@<TRIPOS>SUBSTRUCTURE
     1 XUM         1 TEMP              0 ****  ****    0 ROOT
