@<TRIPOS>MOLECULE
XUM
   97   101     1     0     0
SMALL
No Charge or Current Charge


@<TRIPOS>ATOM
      1 C10          5.5550     0.4670   -14.4870 c3         1 XUM       0.098700
      2 C13          0.7110    -2.4870   -12.4530 c5         1 XUM       0.152600
      3 C15          1.6660    -3.1590   -10.4610 c5         1 XUM       0.372300
      4 C17          3.9650    -3.2210   -10.7080 c5         1 XUM       0.157600
      5 C20          7.2780    -2.1640   -12.6940 ca         1 XUM      -0.069000
      6 C21          7.3810    -2.7140   -11.4050 ca         1 XUM      -0.162500
      7 C22          7.3000    -1.8910   -10.2710 ca         1 XUM       0.127100
      8 C24          7.0340     0.0530   -11.7220 ca         1 XUM      -0.069000
      9 C26          2.8820     5.0970   -17.3980 c3         1 XUM      -0.092100
     10 C28          7.2070    -1.7410    -7.8000 c3         1 XUM      -0.210400
     11 C01          9.8590     5.5900   -18.1120 ca         1 XUM       0.109100
     12 C02          8.8710     6.4110   -17.6460 ca         1 XUM       0.031100
     13 C03          8.0460     6.0360   -16.5770 ca         1 XUM      -0.009000
     14 C04          8.2540     4.7650   -15.9870 ca         1 XUM      -0.311500
     15 C05          9.2890     3.9190   -16.4700 ca         1 XUM      -0.008000
     16 C06         10.1020     4.3340   -17.5450 ca         1 XUM      -0.124000
     17 C08          6.2060     2.3180   -16.2120 c3         1 XUM       0.214800
     18 C09          5.3260     1.0660   -15.9100 c3         1 XUM       0.154300
     19 C11          3.4520    -0.2390   -13.3050 c          1 XUM       0.641100
     20 C12          1.6860    -1.3250   -12.1250 c5         1 XUM       0.159300
     21 C14          2.1130    -1.6680   -10.6380 c5         1 XUM      -0.145700
     22 C16          3.6680    -1.7350   -10.4040 c5         1 XUM      -0.098400
     23 C18          6.9520    -0.1770   -14.2560 c3         1 XUM      -0.035100
     24 C19          7.0980    -0.7770   -12.8590 ca         1 XUM      -0.113300
     25 C23          7.1300    -0.4990   -10.4330 ca         1 XUM      -0.162500
     26 C25          3.5950     4.0460   -16.5170 c3         1 XUM      -0.062700
     27 C27          2.7420     3.7100   -15.2690 c3         1 XUM      -0.092100
     28 C29          9.2520    -4.2350    -5.2700 c3         1 XUM       0.232600
     29 C30          7.7650    -0.4900    -4.9620 c3         1 XUM       0.232600
     30 C31         10.7870    -4.2720    -5.2670 c3         1 XUM      -0.100600
     31 C32          6.6670     0.5320    -5.3170 c3         1 XUM      -0.100600
     32 C33          9.8460     7.4180   -19.3560 c5         1 XUM       0.372600
     33 N34          5.8710     3.5320   -15.4070 n3         1 XUM      -0.737500
     34 N35          4.5020    -0.4990   -14.1370 ns         1 XUM      -0.505900
     35 O36          6.7050     5.4120   -13.9030 o          1 XUM      -0.533000
     36 O37          7.8680     3.1490   -13.8810 o          1 XUM      -0.533000
     37 O38          5.5350     0.0610   -16.9230 oh         1 XUM      -0.669000
     38 O39          3.1950     0.8510   -12.8190 o          1 XUM      -0.542000
     39 O40          2.7900    -1.4120   -13.0730 os         1 XUM      -0.454100
     40 O41          1.2730    -3.6170   -11.7650 os         1 XUM      -0.463000
     41 O42          2.8520    -3.8810   -10.0810 os         1 XUM      -0.427000
     42 O43          8.8130     7.5870   -18.3210 os         1 XUM      -0.338100
     43 O45         10.5510     6.1440   -19.1400 os         1 XUM      -0.336100
     44 O46          8.8550    -3.2300    -6.2050 os         1 XUM      -0.620900
     45 O47          7.2070    -1.8130    -4.9970 os         1 XUM      -0.620900
     46 O48          6.3360    -3.9510    -6.2630 o          1 XUM      -0.543000
     47 P49          7.2960    -2.8090    -6.2770 p5         1 XUM       1.382800
     48 S50          7.2130     4.2350   -14.6160 sy         1 XUM       1.166600
     49 H101         5.4770     1.3090   -13.7840 h1         1 XUM       0.101700
     50 H132         0.6370    -2.6960   -13.5290 h1         1 XUM       0.057200
     51 H131        -0.2960    -2.2900   -12.0600 h1         1 XUM       0.057200
     52 H151         0.8540    -3.2830    -9.7310 h2         1 XUM       0.081700
     53 H171         4.9080    -3.5700   -10.2670 h1         1 XUM       0.055700
     54 H172         3.9680    -3.4380   -11.7850 h1         1 XUM       0.055700
     55 H201         7.3300    -2.8180   -13.5610 ha         1 XUM       0.124000
     56 H211         7.5130    -3.7860   -11.2840 ha         1 XUM       0.122500
     57 H241         6.9010     1.1260   -11.8370 ha         1 XUM       0.124000
     58 H262         1.8890     4.7410   -17.6990 hc         1 XUM       0.040367
     59 H263         2.7570     6.0430   -16.8570 hc         1 XUM       0.040367
     60 H261         3.4600     5.2960   -18.3080 hc         1 XUM       0.040367
     61 H281         7.9840    -0.9750    -7.7060 h1         1 XUM       0.067700
     62 H282         6.2200    -1.2680    -7.7740 h1         1 XUM       0.067700
     63 H031         7.2710     6.7130   -16.2230 ha         1 XUM       0.156000
     64 H051         9.4680     2.9460   -16.0140 ha         1 XUM       0.138000
     65 H061        10.8980     3.6980   -17.9240 ha         1 XUM       0.141000
     66 H071         5.5400     4.8290   -17.0550 h1         1 XUM       0.051200
     67 H072         4.8910     5.4260   -15.5340 h1         1 XUM       0.051200
     68 H081         7.2510     2.0190   -16.0720 h1         1 XUM       0.061200
     69 H082         6.1160     2.5490   -17.2820 h1         1 XUM       0.061200
     70 H091         4.2790     1.3870   -15.9500 h1         1 XUM       0.055700
     71 H121         1.1680    -0.3590   -12.2160 h1         1 XUM       0.082700
     72 H141         1.6150    -1.0110    -9.9170 hc         1 XUM       0.075700
     73 H162         3.9080    -1.5180    -9.3570 hc         1 XUM       0.064200
     74 H161         4.2680    -1.0420   -10.9990 hc         1 XUM       0.064200
     75 H182         7.1220    -0.9500   -15.0150 hc         1 XUM       0.062700
     76 H181         7.7370     0.5700   -14.4110 hc         1 XUM       0.062700
     77 H231         7.0670     0.1630    -9.5750 ha         1 XUM       0.122500
     78 H251         3.6800     3.1410   -17.1280 hc         1 XUM       0.046700
     79 H273         3.2380     2.9630   -14.6390 hc         1 XUM       0.040367
     80 H271         2.5760     4.6060   -14.6590 hc         1 XUM       0.040367
     81 H272         1.7650     3.3090   -15.5630 hc         1 XUM       0.040367
     82 H291         8.8620    -5.2200    -5.5620 h1         1 XUM       0.040450
     83 H292         8.8920    -4.0020    -4.2580 h1         1 XUM       0.040450
     84 H301         8.1340    -0.2720    -3.9520 h1         1 XUM       0.040450
     85 H302         8.6140    -0.3860    -5.6510 h1         1 XUM       0.040450
     86 H311        11.1470    -5.0320    -4.5640 hc         1 XUM       0.047033
     87 H312        11.1690    -4.5170    -6.2650 hc         1 XUM       0.047033
     88 H313        11.1950    -3.3010    -4.9630 hc         1 XUM       0.047033
     89 H321         7.0430     1.5500    -5.1630 hc         1 XUM       0.047033
     90 H323         6.3500     0.4510    -6.3610 hc         1 XUM       0.047033
     91 H322         5.7910     0.3930    -4.6730 hc         1 XUM       0.047033
     92 H331        10.5610     8.2470   -19.3040 h2         1 XUM       0.071200
     93 H332         9.3660     7.3980   -20.3420 h2         1 XUM       0.071200
     94 H351         4.6130    -1.4670   -14.4050 hn         1 XUM       0.323500
     95 H381         4.8370    -0.6190   -16.7990 ho         1 XUM       0.453000
     96 O44          7.3760    -2.4900    -9.0310 os         1 XUM      -0.336100
     97 C07          5.0240     4.5170   -16.1360 c3         1 XUM       0.204800
@<TRIPOS>BOND
     1     1    18 1   
     2     1    23 1   
     3     1    34 1   
     4     1    49 1   
     5     2    20 1   
     6     2    40 1   
     7     2    50 1   
     8     2    51 1   
     9     3    21 1   
    10     3    40 1   
    11     3    41 1   
    12     3    52 1   
    13     4    22 1   
    14     4    41 1   
    15     4    53 1   
    16     4    54 1   
    17     5     6 ar  
    18     5    24 ar  
    19     5    55 1   
    20     6     7 ar  
    21     6    56 1   
    22     7    25 ar  
    23     7    96 1   
    24     8    24 ar  
    25     8    25 ar  
    26     8    57 1   
    27     9    26 1   
    28     9    58 1   
    29     9    59 1   
    30     9    60 1   
    31    10    47 1   
    32    10    61 1   
    33    10    62 1   
    34    10    96 1   
    35    11    12 ar  
    36    11    16 ar  
    37    11    43 1   
    38    12    13 ar  
    39    12    42 1   
    40    13    14 ar  
    41    13    63 1   
    42    14    15 ar  
    43    14    48 1   
    44    15    16 ar  
    45    15    64 1   
    46    16    65 1   
    47    17    18 1   
    48    17    33 1   
    49    17    68 1   
    50    17    69 1   
    51    18    37 1   
    52    18    70 1   
    53    19    34 1   
    54    19    38 2   
    55    19    39 1   
    56    20    21 1   
    57    20    39 1   
    58    20    71 1   
    59    21    22 1   
    60    21    72 1   
    61    22    73 1   
    62    22    74 1   
    63    23    24 1   
    64    23    75 1   
    65    23    76 1   
    66    25    77 1   
    67    26    27 1   
    68    26    78 1   
    69    26    97 1   
    70    27    79 1   
    71    27    80 1   
    72    27    81 1   
    73    28    30 1   
    74    28    44 1   
    75    28    82 1   
    76    28    83 1   
    77    29    31 1   
    78    29    45 1   
    79    29    84 1   
    80    29    85 1   
    81    30    86 1   
    82    30    87 1   
    83    30    88 1   
    84    31    89 1   
    85    31    90 1   
    86    31    91 1   
    87    32    42 1   
    88    32    43 1   
    89    32    92 1   
    90    32    93 1   
    91    33    48 1   
    92    33    97 1   
    93    34    94 1   
    94    35    48 2   
    95    36    48 2   
    96    37    95 1   
    97    44    47 1   
    98    45    47 1   
    99    46    47 2   
   100    66    97 1   
   101    67    97 1   
@<TRIPOS>SUBSTRUCTURE
     1 XUM         1 TEMP              0 ****  ****    0 ROOT
