@<TRIPOS>MOLECULE
XUN
   53    55     1     0     0
SMALL
abcg2


@<TRIPOS>ATOM
      1 C12        -31.8550     2.0660   -10.3120 c6         1 XUN      -0.071400
      2 C17        -29.7240     3.1060    -7.1910 c3         1 XUN      -0.092100
      3 C18        -32.7310     8.6170   -12.4010 ca         1 XUN      -0.020200
      4 C19        -33.1610     7.7660   -13.4180 ca         1 XUN      -0.115000
      5 C20        -34.0260     8.2840   -14.3730 ca         1 XUN      -0.099000
      6 C21        -34.4600     9.6200   -14.3170 ca         1 XUN      -0.144000
      7 C22        -34.0340    10.4650   -13.3020 ca         1 XUN      -0.066000
      8 C02        -32.5300    10.5530   -11.1750 cc         1 XUN      -0.128400
      9 C03        -31.7580     9.5680   -10.6030 cd         1 XUN      -0.057300
     10 C04        -30.8710     9.6310    -9.4090 c3         1 XUN      -0.033900
     11 C06        -31.2180     7.1360   -11.0460 c3         1 XUN       0.083600
     12 C07        -31.9630     6.2580   -10.0510 c3         1 XUN       0.144300
     13 C09        -31.1210     5.0410    -9.6690 c3         1 XUN       0.119800
     14 C11        -31.5410     2.6890    -8.9330 c6         1 XUN       0.188500
     15 C13        -30.9380     0.8900   -10.6700 c6         1 XUN      -0.074400
     16 C14        -30.6250     0.0640    -9.4250 c6         1 XUN      -0.074400
     17 C15        -29.8400     0.9000    -8.3960 c6         1 XUN      -0.068400
     18 C16        -30.0850     2.4210    -8.5070 c6         1 XUN      -0.092700
     19 C23        -33.1590     9.9700   -12.3260 ca         1 XUN      -0.096800
     20 N05        -31.8790     8.3930   -11.3430 na         1 XUN      -0.094700
     21 N10        -31.9530     4.1020    -8.9200 n7         1 XUN      -0.894400
     22 O08        -33.1920     5.8210   -10.6260 oh         1 XUN      -0.658000
     23 H1         -31.7830     2.8330   -11.0840 hc         1 XUN       0.048200
     24 H2         -32.8970     1.7340   -10.3060 hc         1 XUN       0.048200
     25 H3         -28.7140     2.8300    -6.8790 hc         1 XUN       0.034367
     26 H4         -29.7630     4.1940    -7.2630 hc         1 XUN       0.034367
     27 H5         -30.4120     2.7960    -6.3980 hc         1 XUN       0.034367
     28 H7         -34.3760     7.6440   -15.1740 ha         1 XUN       0.107000
     29 H8         -35.1360     9.9910   -15.0770 ha         1 XUN       0.107000
     30 H9         -34.3730    11.4930   -13.2650 ha         1 XUN       0.110000
     31 H10        -33.7530    12.1990   -10.5310 hc         1 XUN       0.034700
     32 H11        -32.1440    12.1730    -9.8110 hc         1 XUN       0.034700
     33 H12        -32.3580    12.6750   -11.4880 hc         1 XUN       0.034700
     34 H13        -29.8330     9.4040    -9.6690 hc         1 XUN       0.044367
     35 H14        -30.8960    10.6290    -8.9760 hc         1 XUN       0.044367
     36 H15        -31.1740     8.9200    -8.6360 hc         1 XUN       0.044367
     37 H16        -31.0890     6.5870   -11.9790 h1         1 XUN       0.059700
     38 H17        -30.2230     7.3470   -10.6520 h1         1 XUN       0.059700
     39 H18        -32.1750     6.8430    -9.1470 h1         1 XUN       0.040700
     40 H19        -30.7790     4.5540   -10.5840 h1         1 XUN       0.042200
     41 H20        -30.2300     5.3720    -9.1220 h1         1 XUN       0.042200
     42 H21        -32.1770     2.2050    -8.1850 h1         1 XUN       0.056700
     43 H22        -31.4090     0.2730   -11.4390 hc         1 XUN       0.041200
     44 H23        -30.0030     1.2620   -11.1000 hc         1 XUN       0.041200
     45 H24        -31.5690    -0.2740    -8.9860 hc         1 XUN       0.041200
     46 H25        -30.0640    -0.8360    -9.6850 hc         1 XUN       0.041200
     47 H26        -30.1050     0.5740    -7.3860 hc         1 XUN       0.039200
     48 H27        -28.7680     0.7180    -8.5060 hc         1 XUN       0.039200
     49 H28        -29.4290     2.8170    -9.2900 hc         1 XUN       0.048700
     50 H29        -32.0450     4.4220    -7.9630 hn         1 XUN       0.420000
     51 H31        -33.3920     5.0010   -10.1340 ho         1 XUN       0.468000
     52 H6         -32.8460     6.7320   -13.4590 ha         1 XUN       0.117000
     53 C01        -32.7010    11.9680   -10.7250 c3         1 XUN      -0.013900
@<TRIPOS>BOND
     1     1    14 1   
     2     1    15 1   
     3     1    23 1   
     4     1    24 1   
     5     2    18 1   
     6     2    25 1   
     7     2    26 1   
     8     2    27 1   
     9     3     4 ar  
    10     3    19 ar  
    11     3    20 1   
    12     4     5 ar  
    13     4    52 1   
    14     5     6 ar  
    15     5    28 1   
    16     6     7 ar  
    17     6    29 1   
    18     7    19 ar  
    19     7    30 1   
    20     8     9 2   
    21     8    19 1   
    22     8    53 1   
    23     9    10 1   
    24     9    20 1   
    25    10    34 1   
    26    10    35 1   
    27    10    36 1   
    28    11    12 1   
    29    11    20 1   
    30    11    37 1   
    31    11    38 1   
    32    12    13 1   
    33    12    22 1   
    34    12    39 1   
    35    13    21 1   
    36    13    40 1   
    37    13    41 1   
    38    14    18 1   
    39    14    21 1   
    40    14    42 1   
    41    15    16 1   
    42    15    43 1   
    43    15    44 1   
    44    16    17 1   
    45    16    45 1   
    46    16    46 1   
    47    17    18 1   
    48    17    47 1   
    49    17    48 1   
    50    18    49 1   
    51    21    50 1   
    52    22    51 1   
    53    31    53 1   
    54    32    53 1   
    55    33    53 1   
@<TRIPOS>SUBSTRUCTURE
     1 XUN         1 TEMP              0 ****  ****    0 ROOT
