@<TRIPOS>MOLECULE
XUN
   53    55     1     0     0
SMALL
No Charge or Current Charge


@<TRIPOS>ATOM
      1 C12        -31.5510     1.8110   -10.4910 c6         1 XUN      -0.071400
      2 C17        -30.1670     3.1560    -6.9890 c3         1 XUN      -0.092100
      3 C18        -32.9020     8.7620   -12.3700 ca         1 XUN      -0.020200
      4 C19        -33.5220     7.9300   -13.3190 ca         1 XUN      -0.115000
      5 C20        -34.4810     8.4980   -14.1830 ca         1 XUN      -0.099000
      6 C21        -34.8020     9.8720   -14.0870 ca         1 XUN      -0.144000
      7 C22        -34.1700    10.6850   -13.1240 ca         1 XUN      -0.066000
      8 C02        -32.4350    10.6660   -11.2170 cc         1 XUN      -0.128400
      9 C03        -31.6510     9.6280   -10.7140 cd         1 XUN      -0.057300
     10 C04        -30.6340     9.6870    -9.6000 c3         1 XUN      -0.033900
     11 C06        -31.3160     7.1060   -11.2790 c3         1 XUN       0.083600
     12 C07        -31.9620     6.2290   -10.1770 c3         1 XUN       0.144300
     13 C09        -31.1590     4.9350    -9.8900 c3         1 XUN       0.119800
     14 C11        -31.5720     2.5270    -9.1000 c6         1 XUN       0.188500
     15 C13        -30.4790     0.6940   -10.6010 c6         1 XUN      -0.074400
     16 C14        -30.3160    -0.0560    -9.2620 c6         1 XUN      -0.074400
     17 C15        -29.8460     0.8890    -8.1210 c6         1 XUN      -0.068400
     18 C16        -30.2090     2.3930    -8.3470 c6         1 XUN      -0.092700
     19 C23        -33.2210    10.0910   -12.2770 ca         1 XUN      -0.096800
     20 N05        -31.9380     8.4390   -11.4250 na         1 XUN      -0.094700
     21 N10        -32.0440     3.9310    -9.2180 n7         1 XUN      -0.894400
     22 O08        -33.2730     5.7930   -10.5420 oh         1 XUN      -0.658000
     23 H1         -31.3930     2.5220   -11.3110 hc         1 XUN       0.048200
     24 H2         -32.5450     1.3790   -10.6700 hc         1 XUN       0.048200
     25 H3         -29.2090     2.9950    -6.4790 hc         1 XUN       0.034367
     26 H4         -30.2810     4.2380    -7.1190 hc         1 XUN       0.034367
     27 H5         -30.9620     2.8150    -6.3150 hc         1 XUN       0.034367
     28 H7         -34.9760     7.8760   -14.9250 ha         1 XUN       0.107000
     29 H8         -35.5420    10.3030   -14.7570 ha         1 XUN       0.107000
     30 H9         -34.4140    11.7410   -13.0450 ha         1 XUN       0.110000
     31 H10        -33.3130    12.6460   -11.1730 hc         1 XUN       0.034700
     32 H11        -32.5240    12.1620    -9.6670 hc         1 XUN       0.034700
     33 H12        -31.5440    12.6220   -11.0720 hc         1 XUN       0.034700
     34 H13        -29.6420     9.3850    -9.9570 hc         1 XUN       0.044367
     35 H14        -30.5410    10.6990    -9.1890 hc         1 XUN       0.044367
     36 H15        -30.9140     9.0200    -8.7770 hc         1 XUN       0.044367
     37 H16        -31.3490     6.5770   -12.2390 h1         1 XUN       0.059700
     38 H17        -30.2580     7.2530   -11.0330 h1         1 XUN       0.059700
     39 H18        -32.0110     6.8090    -9.2460 h1         1 XUN       0.040700
     40 H19        -30.7840     4.5470   -10.8460 h1         1 XUN       0.042200
     41 H20        -30.2840     5.1790    -9.2730 h1         1 XUN       0.042200
     42 H21        -32.3140     1.9920    -8.4880 h1         1 XUN       0.056700
     43 H22        -30.7530    -0.0090   -11.4000 hc         1 XUN       0.041200
     44 H23        -29.5140     1.1310   -10.8930 hc         1 XUN       0.041200
     45 H24        -31.2780    -0.5110    -8.9880 hc         1 XUN       0.041200
     46 H25        -29.6060    -0.8860    -9.3760 hc         1 XUN       0.041200
     47 H26        -30.2780     0.5320    -7.1760 hc         1 XUN       0.039200
     48 H27        -28.7570     0.8040    -8.0020 hc         1 XUN       0.039200
     49 H28        -29.4240     2.8410    -8.9730 hc         1 XUN       0.048700
     50 H29        -32.2250     4.2710    -8.2630 hn         1 XUN       0.420000
     51 H31        -33.2580     4.8680   -10.1770 ho         1 XUN       0.468000
     52 H6         -33.2800     6.8730   -13.3880 ha         1 XUN       0.117000
     53 C01        -32.4570    12.1020   -10.7590 c3         1 XUN      -0.013900
@<TRIPOS>BOND
     1     1    14 1   
     2     1    15 1   
     3     1    23 1   
     4     1    24 1   
     5     2    18 1   
     6     2    25 1   
     7     2    26 1   
     8     2    27 1   
     9     3     4 ar  
    10     3    19 ar  
    11     3    20 1   
    12     4     5 ar  
    13     4    52 1   
    14     5     6 ar  
    15     5    28 1   
    16     6     7 ar  
    17     6    29 1   
    18     7    19 ar  
    19     7    30 1   
    20     8     9 2   
    21     8    19 1   
    22     8    53 1   
    23     9    10 1   
    24     9    20 1   
    25    10    34 1   
    26    10    35 1   
    27    10    36 1   
    28    11    12 1   
    29    11    20 1   
    30    11    37 1   
    31    11    38 1   
    32    12    13 1   
    33    12    22 1   
    34    12    39 1   
    35    13    21 1   
    36    13    40 1   
    37    13    41 1   
    38    14    18 1   
    39    14    21 1   
    40    14    42 1   
    41    15    16 1   
    42    15    43 1   
    43    15    44 1   
    44    16    17 1   
    45    16    45 1   
    46    16    46 1   
    47    17    18 1   
    48    17    47 1   
    49    17    48 1   
    50    18    49 1   
    51    21    50 1   
    52    22    51 1   
    53    31    53 1   
    54    32    53 1   
    55    33    53 1   
@<TRIPOS>SUBSTRUCTURE
     1 XUN         1 TEMP              0 ****  ****    0 ROOT
