@<TRIPOS>MOLECULE
XUP
   96   100     1     0     0
SMALL
No Charge or Current Charge


@<TRIPOS>ATOM
      1 C10          5.4410     0.5600   -14.5250 c3         1 XUP       0.090700
      2 C13          0.5380    -2.3680   -12.5940 c5         1 XUP       0.153600
      3 C15          1.4460    -3.0400   -10.5790 c5         1 XUP       0.368300
      4 C17          3.7500    -3.1110   -10.7730 c5         1 XUP       0.146600
      5 C20          6.8560     0.1690   -11.7220 ca         1 XUP      -0.069000
      6 C21          6.9200    -0.3710   -10.4260 ca         1 XUP      -0.166500
      7 C22          7.0750    -1.7610   -10.2460 ca         1 XUP       0.130100
      8 C24          7.1050    -2.0590   -12.6660 ca         1 XUP      -0.069000
      9 C26          2.6620     3.8060   -15.3830 c3         1 XUP      -0.092600
     10 C28          6.9370    -1.5850    -7.7790 c3         1 XUP      -0.210400
     11 C01          9.8670     5.6320   -18.1080 ca         1 XUP       0.133400
     12 C02          8.8570     6.4560   -17.6560 ca         1 XUP      -0.217000
     13 C03          8.0100     6.0890   -16.6010 ca         1 XUP       0.032000
     14 C04          8.1990     4.8300   -15.9920 ca         1 XUP      -0.296500
     15 C05          9.2380     3.9790   -16.4430 ca         1 XUP      -0.031000
     16 C06         10.0710     4.3820   -17.5050 ca         1 XUP      -0.071000
     17 C08          6.1410     2.3990   -16.2440 c3         1 XUP       0.213800
     18 C09          5.2500     1.1520   -15.9570 c3         1 XUP       0.154300
     19 C11          3.3080    -0.1340   -13.3880 c          1 XUP       0.637100
     20 C12          1.5110    -1.2090   -12.2460 c5         1 XUP       0.159300
     21 C14          1.9030    -1.5510   -10.7490 c5         1 XUP      -0.146700
     22 C16          3.4510    -1.6240   -10.4800 c5         1 XUP      -0.095400
     23 C18          6.8290    -0.0860   -14.2550 c3         1 XUP      -0.033100
     24 C19          6.9390    -0.6730   -12.8490 ca         1 XUP      -0.118300
     25 C23          7.1750    -2.5970   -11.3690 ca         1 XUP      -0.166500
     26 C25          3.5420     4.1330   -16.6140 c3         1 XUP      -0.062700
     27 C27          2.8520     5.1830   -17.5150 c3         1 XUP      -0.092600
     28 C29          8.9990    -3.6910    -4.9160 c3         1 XUP       0.232600
     29 C30          6.7610    -0.2250    -4.9910 c3         1 XUP       0.232600
     30 C31         10.4870    -3.4130    -4.6540 c3         1 XUP      -0.099100
     31 C32          8.2640     0.0870    -4.8480 c3         1 XUP      -0.099100
     32 C33         10.1590     7.3300   -19.4740 cc         1 XUP       0.399100
     33 N34          5.7930     3.6190   -15.4530 n3         1 XUP      -0.736500
     34 N35          4.3750    -0.4010   -14.1960 ns         1 XUP      -0.502900
     35 N36         10.6360     6.1150   -19.1600 nd         1 XUP      -0.528100
     36 O37          7.7510     3.2400   -13.8770 o          1 XUP      -0.532500
     37 O38          6.6050     5.5100   -13.9510 o          1 XUP      -0.532500
     38 O39          5.4810     0.1400   -16.9580 oh         1 XUP      -0.667000
     39 O40          3.0450     0.9590   -12.9110 o          1 XUP      -0.539000
     40 O41          2.6360    -1.3040   -13.1690 os         1 XUP      -0.450100
     41 O42          1.0800    -3.4990   -11.8910 os         1 XUP      -0.461000
     42 O43          2.6190    -3.7650   -10.1710 os         1 XUP      -0.429000
     43 O45          8.5800    -2.7950    -5.9470 os         1 XUP      -0.622400
     44 O46          6.5450    -1.6480    -5.0320 os         1 XUP      -0.622400
     45 O47          6.2430    -3.9180    -6.3320 o          1 XUP      -0.541000
     46 P48          6.9980    -2.6340    -6.2410 p5         1 XUP       1.390800
     47 S49          7.1220     4.3220   -14.6400 sy         1 XUP       1.165600
     48 S50          8.7820     7.9680   -18.5480 ss         1 XUP       0.053800
     49 H101         5.3480     1.4070   -13.8300 h1         1 XUP       0.105700
     50 H132         0.4880    -2.5790   -13.6700 h1         1 XUP       0.058200
     51 H131        -0.4760    -2.1660   -12.2240 h1         1 XUP       0.058200
     52 H151         0.6170    -3.1580    -9.8680 h2         1 XUP       0.080700
     53 H172         4.6810    -3.4630   -10.3100 h1         1 XUP       0.060700
     54 H171         3.7770    -3.3310   -11.8490 h1         1 XUP       0.060700
     55 H201         6.7350     1.2420   -11.8510 ha         1 XUP       0.124500
     56 H211         6.8430     0.3010    -9.5760 ha         1 XUP       0.123000
     57 H241         7.1710    -2.7230   -13.5250 ha         1 XUP       0.124500
     58 H263         3.1420     3.0610   -14.7400 hc         1 XUP       0.040033
     59 H261         2.4860     4.7050   -14.7810 hc         1 XUP       0.040033
     60 H262         1.6900     3.4070   -15.6970 hc         1 XUP       0.040033
     61 H282         7.7190    -0.8250    -7.6760 h1         1 XUP       0.066200
     62 H281         5.9550    -1.0960    -7.7710 h1         1 XUP       0.066200
     63 H031         7.2240     6.7660   -16.2670 ha         1 XUP       0.144000
     64 H051         9.4050     3.0100   -15.9750 ha         1 XUP       0.138000
     65 H061        10.8680     3.7310   -17.8540 ha         1 XUP       0.139000
     66 H071         5.5000     4.9070   -17.1150 h1         1 XUP       0.050700
     67 H072         4.8210     5.5140   -15.6120 h1         1 XUP       0.050700
     68 H081         7.1820     2.0960   -16.0780 h1         1 XUP       0.062700
     69 H082         6.0780     2.6250   -17.3170 h1         1 XUP       0.062700
     70 H091         4.2050     1.4770   -16.0250 h1         1 XUP       0.057700
     71 H121         1.0000    -0.2420   -12.3520 h1         1 XUP       0.081700
     72 H141         1.3900    -0.8900   -10.0420 hc         1 XUP       0.076700
     73 H161         3.6680    -1.4050    -9.4280 hc         1 XUP       0.063700
     74 H162         4.0670    -0.9340   -11.0620 hc         1 XUP       0.063700
     75 H181         7.0150    -0.8670   -15.0030 hc         1 XUP       0.059200
     76 H182         7.6210     0.6560   -14.3980 hc         1 XUP       0.059200
     77 H231         7.2960    -3.6680   -11.2340 ha         1 XUP       0.123000
     78 H251         3.6370     3.2260   -17.2200 hc         1 XUP       0.049700
     79 H271         1.8640     4.8290   -17.8360 hc         1 XUP       0.040033
     80 H272         2.7200     6.1320   -16.9800 hc         1 XUP       0.040033
     81 H273         3.4490     5.3760   -18.4140 hc         1 XUP       0.040033
     82 H291         8.8690    -4.7360    -5.2280 h1         1 XUP       0.039700
     83 H292         8.4310    -3.5270    -3.9900 h1         1 XUP       0.039700
     84 H301         6.3610     0.2700    -5.8850 h1         1 XUP       0.039700
     85 H302         6.2350     0.1980    -4.1250 h1         1 XUP       0.039700
     86 H313        10.8640    -4.0780    -3.8680 hc         1 XUP       0.046700
     87 H311        11.0760    -3.5840    -5.5630 hc         1 XUP       0.046700
     88 H312        10.6340    -2.3770    -4.3290 hc         1 XUP       0.046700
     89 H321         8.4050     1.1560    -4.6500 hc         1 XUP       0.046700
     90 H322         8.6970    -0.4730    -4.0100 hc         1 XUP       0.046700
     91 H323         8.8200    -0.1560    -5.7600 hc         1 XUP       0.046700
     92 H331        10.5670     7.9480   -20.2640 h5         1 XUP       0.063800
     93 H351         4.4890    -1.3700   -14.4590 hn         1 XUP       0.323500
     94 H391         4.7820    -0.5400   -16.8430 ho         1 XUP       0.452000
     95 O44          7.1190    -2.3480    -8.9980 os         1 XUP      -0.331100
     96 C07          4.9640     4.6020   -16.2060 c3         1 XUP       0.203800
@<TRIPOS>BOND
     1     1    18 1   
     2     1    23 1   
     3     1    34 1   
     4     1    49 1   
     5     2    20 1   
     6     2    41 1   
     7     2    50 1   
     8     2    51 1   
     9     3    21 1   
    10     3    41 1   
    11     3    42 1   
    12     3    52 1   
    13     4    22 1   
    14     4    42 1   
    15     4    53 1   
    16     4    54 1   
    17     5     6 ar  
    18     5    24 ar  
    19     5    55 1   
    20     6     7 ar  
    21     6    56 1   
    22     7    25 ar  
    23     7    95 1   
    24     8    24 ar  
    25     8    25 ar  
    26     8    57 1   
    27     9    26 1   
    28     9    58 1   
    29     9    59 1   
    30     9    60 1   
    31    10    46 1   
    32    10    61 1   
    33    10    62 1   
    34    10    95 1   
    35    11    12 ar  
    36    11    16 ar  
    37    11    35 1   
    38    12    13 ar  
    39    12    48 1   
    40    13    14 ar  
    41    13    63 1   
    42    14    15 ar  
    43    14    47 1   
    44    15    16 ar  
    45    15    64 1   
    46    16    65 1   
    47    17    18 1   
    48    17    33 1   
    49    17    68 1   
    50    17    69 1   
    51    18    38 1   
    52    18    70 1   
    53    19    34 1   
    54    19    39 2   
    55    19    40 1   
    56    20    21 1   
    57    20    40 1   
    58    20    71 1   
    59    21    22 1   
    60    21    72 1   
    61    22    73 1   
    62    22    74 1   
    63    23    24 1   
    64    23    75 1   
    65    23    76 1   
    66    25    77 1   
    67    26    27 1   
    68    26    78 1   
    69    26    96 1   
    70    27    79 1   
    71    27    80 1   
    72    27    81 1   
    73    28    30 1   
    74    28    43 1   
    75    28    82 1   
    76    28    83 1   
    77    29    31 1   
    78    29    44 1   
    79    29    84 1   
    80    29    85 1   
    81    30    86 1   
    82    30    87 1   
    83    30    88 1   
    84    31    89 1   
    85    31    90 1   
    86    31    91 1   
    87    32    35 2   
    88    32    48 1   
    89    32    92 1   
    90    33    47 1   
    91    33    96 1   
    92    34    93 1   
    93    36    47 2   
    94    37    47 2   
    95    38    94 1   
    96    43    46 1   
    97    44    46 1   
    98    45    46 2   
    99    66    96 1   
   100    67    96 1   
@<TRIPOS>SUBSTRUCTURE
     1 XUP         1 TEMP              0 ****  ****    0 ROOT
