@<TRIPOS>MOLECULE
XUP
   96   100     1     0     0
SMALL
abcg2


@<TRIPOS>ATOM
      1 C10          5.5360     0.3690   -14.4840 c3         1 XUP       0.090700
      2 C13          0.6070    -2.2320   -12.4480 c5         1 XUP       0.153600
      3 C15          1.3020    -2.5700   -10.3110 c5         1 XUP       0.368300
      4 C17          3.5620    -2.6560   -10.0740 c5         1 XUP       0.146600
      5 C20          6.9370     0.3590   -11.5830 ca         1 XUP      -0.069000
      6 C21          6.9380    -0.0150   -10.2440 ca         1 XUP      -0.166500
      7 C22          6.9300    -1.3640    -9.9100 ca         1 XUP       0.130100
      8 C24          6.9150    -1.9280   -12.2440 ca         1 XUP      -0.069000
      9 C26          2.5870     3.1730   -16.2430 c3         1 XUP      -0.092600
     10 C28          7.0520    -0.9250    -7.5770 c3         1 XUP      -0.210400
     11 C01          9.6900     6.2720   -16.9270 ca         1 XUP       0.133400
     12 C02          8.4030     6.8320   -16.8670 ca         1 XUP      -0.217000
     13 C03          7.3630     6.2120   -16.1890 ca         1 XUP       0.032000
     14 C04          7.6430     5.0010   -15.5780 ca         1 XUP      -0.296500
     15 C05          8.9200     4.4250   -15.6200 ca         1 XUP      -0.031000
     16 C06          9.9440     5.0570   -16.2910 ca         1 XUP      -0.071000
     17 C08          6.2570     1.9730   -16.3540 c3         1 XUP       0.213800
     18 C09          5.4630     0.7190   -15.9790 c3         1 XUP       0.154300
     19 C11          3.4510    -0.2200   -13.3520 c          1 XUP       0.637100
     20 C12          1.5590    -1.0700   -12.2180 c5         1 XUP       0.159300
     21 C14          1.8110    -1.1570   -10.7020 c5         1 XUP      -0.146700
     22 C16          3.2570    -1.1710   -10.1970 c5         1 XUP      -0.095400
     23 C18          6.9030    -0.1750   -14.0520 c3         1 XUP      -0.033100
     24 C19          6.9260    -0.5820   -12.6050 ca         1 XUP      -0.118300
     25 C23          6.9200    -2.3230   -10.9190 ca         1 XUP      -0.166500
     26 C25          3.5720     3.2630   -17.4010 c3         1 XUP      -0.062700
     27 C27          2.9760     4.0510   -18.5630 c3         1 XUP      -0.092600
     28 C29          8.5710    -4.1200    -6.7470 c3         1 XUP       0.232600
     29 C30          8.8210    -0.2410    -4.7850 c3         1 XUP       0.232600
     30 C31         10.0020    -4.5970    -6.7110 c3         1 XUP      -0.099100
     31 C32          8.6820     0.8780    -3.7840 c3         1 XUP      -0.099100
     32 C33         10.0690     8.0820   -18.0900 cc         1 XUP       0.399100
     33 N34          5.5960     3.2070   -15.9240 n3         1 XUP      -0.736500
     34 N35          4.4940    -0.5730   -14.1250 ns         1 XUP      -0.502900
     35 N36         10.6100     7.0110   -17.6290 nd         1 XUP      -0.528100
     36 O37          6.9260     3.2270   -13.7980 o          1 XUP      -0.532500
     37 O38          5.3530     5.1090   -14.3140 o          1 XUP      -0.532500
     38 O39          5.9570    -0.3100   -16.8040 oh         1 XUP      -0.667000
     39 O40          3.1790     0.9140   -13.0130 o          1 XUP      -0.539000
     40 O41          2.7290    -1.2950   -13.0010 os         1 XUP      -0.450100
     41 O42          0.9850    -3.2210   -11.5200 os         1 XUP      -0.461000
     42 O43          2.3280    -3.2330    -9.6630 os         1 XUP      -0.429000
     43 O45          8.5360    -2.7730    -6.2420 os         1 XUP      -0.622400
     44 O46          7.5440    -0.8930    -4.9210 os         1 XUP      -0.622400
     45 O47          5.9640    -2.7240    -5.7630 o          1 XUP      -0.541000
     46 P48          7.1810    -1.9410    -6.0670 p5         1 XUP       1.390800
     47 S49          6.3250     4.1300   -14.7670 sy         1 XUP       1.165600
     48 S50          8.3910     8.3280   -17.7300 ss         1 XUP       0.053800
     49 H101         5.3300     1.2830   -13.9290 h1         1 XUP       0.105700
     50 H132         0.6580    -2.6420   -13.4580 h1         1 XUP       0.058200
     51 H131        -0.4210    -1.8890   -12.2730 h1         1 XUP       0.058200
     52 H151         0.4290    -2.5610    -9.6470 h2         1 XUP       0.080700
     53 H172         4.3120    -2.8850    -9.3180 h1         1 XUP       0.060700
     54 H171         3.8980    -3.0780   -11.0270 h1         1 XUP       0.060700
     55 H201         6.9480     1.4150   -11.8260 ha         1 XUP       0.124500
     56 H211         6.9430     0.7580    -9.4860 ha         1 XUP       0.123000
     57 H241         6.9070    -2.6880   -13.0170 ha         1 XUP       0.124500
     58 H263         2.9870     2.6130   -15.3980 hc         1 XUP       0.040033
     59 H261         2.3240     4.1710   -15.8850 hc         1 XUP       0.040033
     60 H262         1.6670     2.6800   -16.5590 hc         1 XUP       0.040033
     61 H282         7.9400    -0.2910    -7.6910 h1         1 XUP       0.066200
     62 H281         6.1820    -0.2640    -7.4880 h1         1 XUP       0.066200
     63 H031         6.3820     6.6630   -16.1400 ha         1 XUP       0.144000
     64 H051         9.1140     3.4870   -15.1180 ha         1 XUP       0.138000
     65 H061        10.9340     4.6230   -16.3240 ha         1 XUP       0.139000
     66 H071         5.5360     4.0460   -17.8490 h1         1 XUP       0.050700
     67 H072         4.6350     4.9360   -16.6280 h1         1 XUP       0.050700
     68 H081         7.2770     1.9090   -15.9700 h1         1 XUP       0.062700
     69 H082         6.3510     2.0070   -17.4430 h1         1 XUP       0.062700
     70 H091         4.4060     0.9130   -16.2000 h1         1 XUP       0.057700
     71 H121         1.1040    -0.1220   -12.5000 h1         1 XUP       0.081700
     72 H141         1.2280    -0.3790   -10.2080 hc         1 XUP       0.076700
     73 H161         3.2970    -0.7020    -9.2120 hc         1 XUP       0.063700
     74 H162         3.9750    -0.6450   -10.8230 hc         1 XUP       0.063700
     75 H181         7.1700    -1.0350   -14.6710 hc         1 XUP       0.059200
     76 H182         7.6610     0.5870   -14.2370 hc         1 XUP       0.059200
     77 H231         6.9140    -3.3740   -10.6590 ha         1 XUP       0.123000
     78 H251         3.7900     2.2540   -17.7670 hc         1 XUP       0.049700
     79 H271         2.0530     3.5860   -18.9100 hc         1 XUP       0.040033
     80 H272         2.7400     5.0740   -18.2610 hc         1 XUP       0.040033
     81 H273         3.6620     4.1010   -19.4090 hc         1 XUP       0.040033
     82 H291         8.1850    -4.1420    -7.7670 h1         1 XUP       0.039700
     83 H292         7.9350    -4.7580    -6.1310 h1         1 XUP       0.039700
     84 H301         9.5590    -0.9710    -4.4490 h1         1 XUP       0.039700
     85 H302         9.1530     0.1520    -5.7490 h1         1 XUP       0.039700
     86 H313        10.0500    -5.6180    -7.0880 hc         1 XUP       0.046700
     87 H311        10.6450    -3.9780    -7.3370 hc         1 XUP       0.046700
     88 H312        10.3970    -4.5950    -5.6950 hc         1 XUP       0.046700
     89 H321         9.6490     1.3680    -3.6610 hc         1 XUP       0.046700
     90 H322         7.9660     1.6290    -4.1180 hc         1 XUP       0.046700
     91 H323         8.3700     0.5050    -2.8090 hc         1 XUP       0.046700
     92 H331        10.6040     8.8170   -18.6770 h5         1 XUP       0.063800
     93 H351         4.6440    -1.5550   -14.3020 hn         1 XUP       0.323500
     94 H391         5.3820    -1.0780   -16.7220 ho         1 XUP       0.452000
     95 O44          6.9230    -1.8380    -8.6400 os         1 XUP      -0.331100
     96 C07          4.8780     3.9330   -16.9800 c3         1 XUP       0.203800
@<TRIPOS>BOND
     1     1    18 1   
     2     1    23 1   
     3     1    34 1   
     4     1    49 1   
     5     2    20 1   
     6     2    41 1   
     7     2    50 1   
     8     2    51 1   
     9     3    21 1   
    10     3    41 1   
    11     3    42 1   
    12     3    52 1   
    13     4    22 1   
    14     4    42 1   
    15     4    53 1   
    16     4    54 1   
    17     5     6 ar  
    18     5    24 ar  
    19     5    55 1   
    20     6     7 ar  
    21     6    56 1   
    22     7    25 ar  
    23     7    95 1   
    24     8    24 ar  
    25     8    25 ar  
    26     8    57 1   
    27     9    26 1   
    28     9    58 1   
    29     9    59 1   
    30     9    60 1   
    31    10    46 1   
    32    10    61 1   
    33    10    62 1   
    34    10    95 1   
    35    11    12 ar  
    36    11    16 ar  
    37    11    35 1   
    38    12    13 ar  
    39    12    48 1   
    40    13    14 ar  
    41    13    63 1   
    42    14    15 ar  
    43    14    47 1   
    44    15    16 ar  
    45    15    64 1   
    46    16    65 1   
    47    17    18 1   
    48    17    33 1   
    49    17    68 1   
    50    17    69 1   
    51    18    38 1   
    52    18    70 1   
    53    19    34 1   
    54    19    39 2   
    55    19    40 1   
    56    20    21 1   
    57    20    40 1   
    58    20    71 1   
    59    21    22 1   
    60    21    72 1   
    61    22    73 1   
    62    22    74 1   
    63    23    24 1   
    64    23    75 1   
    65    23    76 1   
    66    25    77 1   
    67    26    27 1   
    68    26    78 1   
    69    26    96 1   
    70    27    79 1   
    71    27    80 1   
    72    27    81 1   
    73    28    30 1   
    74    28    43 1   
    75    28    82 1   
    76    28    83 1   
    77    29    31 1   
    78    29    44 1   
    79    29    84 1   
    80    29    85 1   
    81    30    86 1   
    82    30    87 1   
    83    30    88 1   
    84    31    89 1   
    85    31    90 1   
    86    31    91 1   
    87    32    35 2   
    88    32    48 1   
    89    32    92 1   
    90    33    47 1   
    91    33    96 1   
    92    34    93 1   
    93    36    47 2   
    94    37    47 2   
    95    38    94 1   
    96    43    46 1   
    97    44    46 1   
    98    45    46 2   
    99    66    96 1   
   100    67    96 1   
@<TRIPOS>SUBSTRUCTURE
     1 XUP         1 TEMP              0 ****  ****    0 ROOT
