@<TRIPOS>MOLECULE
XUS
   99   102     1     0     0
SMALL
abcg2


@<TRIPOS>ATOM
      1 C13         20.1130    -0.3210    15.1590 c3         1 XUS       0.154300
      2 C15         19.8490     0.1020    16.6120 c3         1 XUS       0.092700
      3 C17         21.7750     0.4510    18.0810 c          1 XUS       0.637100
      4 C20         23.5680     1.0990    19.4890 c5         1 XUS       0.160300
      5 C21         24.7350     2.0560    19.3240 c5         1 XUS       0.153600
      6 C24         23.7450     2.7870    21.2370 c5         1 XUS       0.369300
      7 C26         21.5020     3.1650    21.0580 c5         1 XUS       0.150600
      8 C28         18.5280     0.8570    16.8010 c3         1 XUS      -0.033100
      9 C01         15.7880    -6.0190    13.8410 ca         1 XUS       0.374000
     10 C02         16.9020    -6.5980    14.4720 ca         1 XUS      -0.218000
     11 C03         17.7430    -5.8400    15.2580 ca         1 XUS       0.036500
     12 C04         17.4970    -4.4820    15.4410 ca         1 XUS      -0.374500
     13 C05         16.3940    -3.8910    14.8260 ca         1 XUS       0.036500
     14 C06         15.5530    -4.6460    14.0380 ca         1 XUS      -0.218000
     15 C11         20.3690    -3.6630    14.4140 c3         1 XUS       0.206800
     16 C12         19.2300    -1.4790    14.6850 c3         1 XUS       0.218800
     17 C23         23.1110     1.4060    20.9250 c5         1 XUS      -0.146700
     18 C25         21.6230     1.6530    21.1800 c5         1 XUS      -0.096400
     19 C29         18.3210     1.2640    18.2330 ca         1 XUS      -0.116300
     20 C30         18.1350     0.3190    19.2350 ca         1 XUS      -0.070000
     21 C31         18.0070     0.6830    20.5700 ca         1 XUS      -0.165000
     22 C32         18.0710     2.0270    20.9220 ca         1 XUS       0.128100
     23 C33         18.2290     2.9910    19.9310 ca         1 XUS      -0.165000
     24 C34         18.3550     2.6050    18.6080 ca         1 XUS      -0.070000
     25 C37         21.8010    -3.2070    14.1490 c3         1 XUS      -0.060700
     26 C38         22.4370    -4.0760    13.0570 c3         1 XUS      -0.075400
     27 C39         22.6240    -3.1790    15.4300 c3         1 XUS      -0.089100
     28 C41         18.1720     1.5710    23.2530 c3         1 XUS      -0.189400
     29 C45         17.3450     4.7160    25.5700 c3         1 XUS       0.229600
     30 C46         17.8880     1.0710    26.8150 c3         1 XUS       0.229600
     31 C47         17.3240     5.7540    24.4740 c3         1 XUS      -0.134100
     32 C48         16.9040     0.0920    26.2160 c3         1 XUS      -0.134100
     33 N10         19.6230    -2.7510    15.2880 n3         1 XUS      -0.737500
     34 N16         20.9460     0.9020    17.1230 ns         1 XUS      -0.503900
     35 O14         19.9070     0.7320    14.2440 oh         1 XUS      -0.669000
     36 O18         21.8000    -0.6850    18.5110 o          1 XUS      -0.539000
     37 O19         22.5910     1.4270    18.5050 os         1 XUS      -0.450100
     38 O22         24.3780     3.2100    20.0510 os         1 XUS      -0.463000
     39 O27         22.7290     3.6590    21.5840 os         1 XUS      -0.424000
     40 O35         17.9950     2.4840    22.1960 os         1 XUS      -0.324100
     41 O43         17.3230     3.3850    25.0180 os         1 XUS      -0.621400
     42 O44         18.8750     1.5300    25.8760 os         1 XUS      -0.621400
     43 O49         19.8810     3.3840    24.4540 o          1 XUS      -0.541000
     44 P42         18.6610     2.5780    24.6880 p5         1 XUS       1.369800
     45 S07         18.6080    -3.4890    16.3720 sy         1 XUS       1.171600
     46 H131        21.1550    -0.6630    15.1200 h1         1 XUS       0.055700
     47 H151        19.8280    -0.8040    17.2160 h1         1 XUS       0.101700
     48 H201        23.8810     0.0620    19.3720 h1         1 XUS       0.081700
     49 H212        24.9330     2.3270    18.2860 h1         1 XUS       0.057200
     50 H211        25.6400     1.5890    19.7320 h1         1 XUS       0.057200
     51 H241        24.4700     2.7650    22.0590 h2         1 XUS       0.078700
     52 H261        20.6870     3.5800    21.6490 h1         1 XUS       0.061700
     53 H262        21.3630     3.4770    20.0180 h1         1 XUS       0.061700
     54 H282        18.5200     1.7450    16.1660 hc         1 XUS       0.061200
     55 H281        17.7060     0.2260    16.4620 hc         1 XUS       0.061200
     56 H021        17.1020    -7.6540    14.3400 ha         1 XUS       0.117000
     57 H031        18.5920    -6.3160    15.7310 ha         1 XUS       0.130500
     58 H051        16.1800    -2.8390    14.9600 ha         1 XUS       0.130500
     59 H061        14.6970    -4.1770    13.5690 ha         1 XUS       0.117000
     60 H111        19.8310    -3.7760    13.4660 h1         1 XUS       0.047200
     61 H112        20.4040    -4.6480    14.8790 h1         1 XUS       0.047200
     62 H122        18.1760    -1.2590    14.8590 h1         1 XUS       0.061700
     63 H121        19.3430    -1.5730    13.6020 h1         1 XUS       0.061700
     64 H231        23.5060     0.6350    21.5860 hc         1 XUS       0.074700
     65 H252        21.3770     1.3460    22.1990 hc         1 XUS       0.061200
     66 H251        20.9460     1.1170    20.5170 hc         1 XUS       0.061200
     67 H301        18.0890    -0.7330    18.9790 ha         1 XUS       0.124500
     68 H311        17.8610    -0.0900    21.3130 ha         1 XUS       0.123000
     69 H331        18.2730     4.0370    20.2050 ha         1 XUS       0.123000
     70 H341        18.4930     3.3680    17.8510 ha         1 XUS       0.124500
     71 H361        23.0650    -6.0830    12.5610 hc         1 XUS       0.033033
     72 H362        23.2250    -5.7090    14.2690 hc         1 XUS       0.033033
     73 H363        21.6390    -6.0430    13.5810 hc         1 XUS       0.033033
     74 H371        21.7690    -2.1920    13.7380 hc         1 XUS       0.046700
     75 H381        21.8420    -3.9790    12.1430 hc         1 XUS       0.038200
     76 H382        23.4180    -3.6560    12.8210 hc         1 XUS       0.038200
     77 H392        22.2100    -2.4810    16.1590 hc         1 XUS       0.043700
     78 H393        22.6590    -4.1600    15.9060 hc         1 XUS       0.043700
     79 H391        23.6510    -2.8720    15.2260 hc         1 XUS       0.043700
     80 H412        17.2660     0.9880    23.4510 h1         1 XUS       0.067200
     81 H411        18.9850     0.8620    23.0600 h1         1 XUS       0.067200
     82 H452        18.2130     4.8490    26.2180 h1         1 XUS       0.047200
     83 H451        16.4560     4.7870    26.1950 h1         1 XUS       0.047200
     84 H461        18.4610     0.5920    27.6070 h1         1 XUS       0.047200
     85 H462        17.3680     1.9240    27.2550 h1         1 XUS       0.047200
     86 H473        17.2700     6.7480    24.9190 hc         1 XUS       0.052367
     87 H472        18.2240     5.7070    23.8640 hc         1 XUS       0.052367
     88 H471        16.4560     5.6280    23.8260 hc         1 XUS       0.052367
     89 H481        16.2820    -0.3160    27.0130 hc         1 XUS       0.052367
     90 H483        16.2380     0.5640    25.4930 hc         1 XUS       0.052367
     91 H482        17.4150    -0.7400    25.7320 hc         1 XUS       0.052367
     92 H161        20.9770     1.8840    16.8910 hn         1 XUS       0.322500
     93 H401        14.2980    -6.3060    12.4750 hn         1 XUS       0.474000
     94 H402        15.2440    -7.6760    12.7810 hn         1 XUS       0.474000
     95 H141        20.5810     1.4050    14.3880 ho         1 XUS       0.450000
     96 N40         14.9360    -6.7720    13.0990 nv         1 XUS      -1.093000
     97 C36         22.5960    -5.5550    13.3920 c3         1 XUS      -0.090100
     98 O08         17.8450    -2.4320    17.0230 o          1 XUS      -0.540000
     99 O09         19.4310    -4.3670    17.1900 o          1 XUS      -0.540000
@<TRIPOS>BOND
     1     1     2 1   
     2     1    16 1   
     3     1    35 1   
     4     1    46 1   
     5     2     8 1   
     6     2    34 1   
     7     2    47 1   
     8     3    34 1   
     9     3    36 2   
    10     3    37 1   
    11     4     5 1   
    12     4    17 1   
    13     4    37 1   
    14     4    48 1   
    15     5    38 1   
    16     5    49 1   
    17     5    50 1   
    18     6    17 1   
    19     6    38 1   
    20     6    39 1   
    21     6    51 1   
    22     7    18 1   
    23     7    39 1   
    24     7    52 1   
    25     7    53 1   
    26     8    19 1   
    27     8    54 1   
    28     8    55 1   
    29     9    10 ar  
    30     9    14 ar  
    31     9    96 1   
    32    10    11 ar  
    33    10    56 1   
    34    11    12 ar  
    35    11    57 1   
    36    12    13 ar  
    37    12    45 1   
    38    13    14 ar  
    39    13    58 1   
    40    14    59 1   
    41    15    25 1   
    42    15    33 1   
    43    15    60 1   
    44    15    61 1   
    45    16    33 1   
    46    16    62 1   
    47    16    63 1   
    48    17    18 1   
    49    17    64 1   
    50    18    65 1   
    51    18    66 1   
    52    19    20 ar  
    53    19    24 ar  
    54    20    21 ar  
    55    20    67 1   
    56    21    22 ar  
    57    21    68 1   
    58    22    23 ar  
    59    22    40 1   
    60    23    24 ar  
    61    23    69 1   
    62    24    70 1   
    63    25    26 1   
    64    25    27 1   
    65    25    74 1   
    66    26    75 1   
    67    26    76 1   
    68    26    97 1   
    69    27    77 1   
    70    27    78 1   
    71    27    79 1   
    72    28    40 1   
    73    28    44 1   
    74    28    80 1   
    75    28    81 1   
    76    29    31 1   
    77    29    41 1   
    78    29    82 1   
    79    29    83 1   
    80    30    32 1   
    81    30    42 1   
    82    30    84 1   
    83    30    85 1   
    84    31    86 1   
    85    31    87 1   
    86    31    88 1   
    87    32    89 1   
    88    32    90 1   
    89    32    91 1   
    90    33    45 1   
    91    34    92 1   
    92    35    95 1   
    93    41    44 1   
    94    42    44 1   
    95    43    44 2   
    96    45    98 2   
    97    45    99 2   
    98    71    97 1   
    99    72    97 1   
   100    73    97 1   
   101    93    96 1   
   102    94    96 1   
@<TRIPOS>SUBSTRUCTURE
     1 XUS         1 TEMP              0 ****  ****    0 ROOT
