@<TRIPOS>MOLECULE
XUS
   99   102     1     0     0
SMALL
No Charge or Current Charge


@<TRIPOS>ATOM
      1 C13         20.1030    -0.7410    15.2860 c3         1 XUS       0.154300
      2 C15         19.8960    -0.1490    16.7150 c3         1 XUS       0.092700
      3 C17         22.0380     0.4720    17.8760 c          1 XUS       0.637100
      4 C20         23.8430     1.4830    19.0630 c5         1 XUS       0.160300
      5 C21         24.8430     2.6290    18.7530 c5         1 XUS       0.153600
      6 C24         23.9260     3.2720    20.7730 c5         1 XUS       0.369300
      7 C26         21.6260     3.3960    20.5550 c5         1 XUS       0.150600
      8 C28         18.5200     0.5340    16.9570 c3         1 XUS      -0.033100
      9 C01         15.4480    -5.2600    13.1470 ca         1 XUS       0.374000
     10 C02         16.4480    -6.1090    13.6310 ca         1 XUS      -0.218000
     11 C03         17.2810    -5.6930    14.6810 ca         1 XUS       0.036500
     12 C04         17.1120    -4.4120    15.2420 ca         1 XUS      -0.374500
     13 C05         16.0980    -3.5610    14.7590 ca         1 XUS       0.036500
     14 C06         15.2710    -3.9910    13.7080 ca         1 XUS      -0.218000
     15 C11         20.3060    -4.2040    14.9960 c3         1 XUS       0.206800
     16 C12         19.1920    -1.9700    14.9770 c3         1 XUS       0.218800
     17 C23         23.4410     1.7980    20.5630 c5         1 XUS      -0.146700
     18 C25         21.8910     1.8960    20.8170 c5         1 XUS      -0.096400
     19 C29         18.3980     1.1220    18.3620 ca         1 XUS      -0.116300
     20 C30         18.4420     0.2780    19.4890 ca         1 XUS      -0.070000
     21 C31         18.3720     0.8180    20.7850 ca         1 XUS      -0.165000
     22 C32         18.2490     2.2120    20.9630 ca         1 XUS       0.128100
     23 C33         18.1870     3.0500    19.8400 ca         1 XUS      -0.165000
     24 C34         18.2640     2.5120    18.5440 ca         1 XUS      -0.070000
     25 C37         21.7420    -3.7760    14.5830 c3         1 XUS      -0.060700
     26 C38         22.3930    -4.7820    13.5920 c3         1 XUS      -0.075400
     27 C39         22.6420    -3.5040    15.8150 c3         1 XUS      -0.089100
     28 C41         18.3560     2.0320    23.4310 c3         1 XUS      -0.189400
     29 C45         16.3210     4.5520    25.9850 c3         1 XUS       0.229600
     30 C46         17.7750     0.7790    26.2580 c3         1 XUS       0.229600
     31 C47         16.7130     5.9620    25.5000 c3         1 XUS      -0.134100
     32 C48         18.8450    -0.2680    25.8950 c3         1 XUS      -0.134100
     33 N10         19.5140    -3.2010    15.7600 n3         1 XUS      -0.737500
     34 N16         20.9790     0.7810    17.0710 ns         1 XUS      -0.503900
     35 O14         19.9140     0.2780    14.2830 oh         1 XUS      -0.669000
     36 O18         22.2760    -0.6380    18.3240 o          1 XUS      -0.539000
     37 O19         22.7300     1.6230    18.1310 os         1 XUS      -0.450100
     38 O22         24.3160     3.7540    19.4770 os         1 XUS      -0.463000
     39 O27         22.7630     4.0130    21.1850 os         1 XUS      -0.424000
     40 O35         18.2010     2.7990    22.2110 os         1 XUS      -0.324100
     41 O43         16.7730     3.5720    25.0390 os         1 XUS      -0.621400
     42 O44         18.3710     2.0850    26.2320 os         1 XUS      -0.621400
     43 O49         19.3410     4.1820    24.9730 o          1 XUS      -0.541000
     44 P42         18.3200     3.0940    24.9600 p5         1 XUS       1.369800
     45 S07         18.1780    -3.8730    16.5850 sy         1 XUS       1.171600
     46 H131        21.1410    -1.0880    15.2380 h1         1 XUS       0.055700
     47 H151        19.9520    -0.9990    17.4090 h1         1 XUS       0.101700
     48 H201        24.3350     0.5070    18.9400 h1         1 XUS       0.081700
     49 H212        24.9100     2.8630    17.6830 h1         1 XUS       0.057200
     50 H211        25.8480     2.3970    19.1300 h1         1 XUS       0.057200
     51 H241        24.7490     3.3570    21.4960 h2         1 XUS       0.078700
     52 H261        20.6970     3.7570    21.0150 h1         1 XUS       0.061700
     53 H262        21.6170     3.6410    19.4840 h1         1 XUS       0.061700
     54 H282        18.3700     1.3200    16.2080 hc         1 XUS       0.061200
     55 H281        17.7120    -0.1870    16.7980 hc         1 XUS       0.061200
     56 H021        16.5830    -7.0960    13.1990 ha         1 XUS       0.117000
     57 H031        18.0550    -6.3650    15.0510 ha         1 XUS       0.130500
     58 H051        15.9430    -2.5730    15.1910 ha         1 XUS       0.130500
     59 H061        14.4910    -3.3330    13.3370 ha         1 XUS       0.117000
     60 H111        19.7560    -4.4850    14.0870 h1         1 XUS       0.047200
     61 H112        20.4180    -5.1220    15.5870 h1         1 XUS       0.047200
     62 H122        18.1540    -1.6520    15.1320 h1         1 XUS       0.061700
     63 H121        19.2650    -2.1860    13.9030 h1         1 XUS       0.061700
     64 H231        23.9310     1.1100    21.2610 hc         1 XUS       0.074700
     65 H252        21.6570     1.6580    21.8610 hc         1 XUS       0.061200
     66 H251        21.2680     1.2330    20.2130 hc         1 XUS       0.061200
     67 H301        18.5400    -0.7980    19.3620 ha         1 XUS       0.124500
     68 H311        18.4180     0.1440    21.6350 ha         1 XUS       0.123000
     69 H331        18.0910     4.1250    19.9740 ha         1 XUS       0.123000
     70 H341        18.2280     3.1780    17.6850 ha         1 XUS       0.124500
     71 H361        23.0730    -6.8400    13.3570 hc         1 XUS       0.033033
     72 H362        23.2720    -6.2170    15.0030 hc         1 XUS       0.033033
     73 H363        21.6580    -6.6830    14.4110 hc         1 XUS       0.033033
     74 H371        21.6630    -2.8370    14.0240 hc         1 XUS       0.046700
     75 H381        21.7710    -4.8410    12.6890 hc         1 XUS       0.038200
     76 H382        23.3610    -4.3820    13.2660 hc         1 XUS       0.038200
     77 H392        22.2160    -2.7170    16.4460 hc         1 XUS       0.043700
     78 H393        22.7470    -4.4020    16.4350 hc         1 XUS       0.043700
     79 H391        23.6420    -3.1810    15.5030 hc         1 XUS       0.043700
     80 H412        17.5550     1.2920    23.5250 h1         1 XUS       0.067200
     81 H411        19.3280     1.5260    23.4430 h1         1 XUS       0.067200
     82 H452        16.7450     4.3720    26.9820 h1         1 XUS       0.047200
     83 H451        15.2280     4.5010    26.0750 h1         1 XUS       0.047200
     84 H461        17.4000     0.5650    27.2670 h1         1 XUS       0.047200
     85 H462        16.9220     0.7040    25.5700 h1         1 XUS       0.047200
     86 H473        16.1960     6.7180    26.1020 hc         1 XUS       0.052367
     87 H472        17.7880     6.1410    25.6000 hc         1 XUS       0.052367
     88 H471        16.4230     6.1060    24.4520 hc         1 XUS       0.052367
     89 H481        18.4430    -1.2770    26.0440 hc         1 XUS       0.052367
     90 H483        19.1630    -0.1890    24.8520 hc         1 XUS       0.052367
     91 H482        19.7250    -0.1570    26.5400 hc         1 XUS       0.052367
     92 H161        20.8860     1.7600    16.8330 hn         1 XUS       0.322500
     93 H401        14.0510    -4.9870    11.6560 hn         1 XUS       0.474000
     94 H402        14.8920    -6.5040    11.5980 hn         1 XUS       0.474000
     95 H141        20.6180     0.9490    14.4230 ho         1 XUS       0.450000
     96 N40         14.6420    -5.6700    12.1250 nv         1 XUS      -1.093000
     97 C36         22.6090    -6.2150    14.1300 c3         1 XUS      -0.090100
     98 O08         17.5460    -2.7670    17.3100 o          1 XUS      -0.540000
     99 O09         18.6840    -5.0420    17.3120 o          1 XUS      -0.540000
@<TRIPOS>BOND
     1     1     2 1   
     2     1    16 1   
     3     1    35 1   
     4     1    46 1   
     5     2     8 1   
     6     2    34 1   
     7     2    47 1   
     8     3    34 1   
     9     3    36 2   
    10     3    37 1   
    11     4     5 1   
    12     4    17 1   
    13     4    37 1   
    14     4    48 1   
    15     5    38 1   
    16     5    49 1   
    17     5    50 1   
    18     6    17 1   
    19     6    38 1   
    20     6    39 1   
    21     6    51 1   
    22     7    18 1   
    23     7    39 1   
    24     7    52 1   
    25     7    53 1   
    26     8    19 1   
    27     8    54 1   
    28     8    55 1   
    29     9    10 ar  
    30     9    14 ar  
    31     9    96 1   
    32    10    11 ar  
    33    10    56 1   
    34    11    12 ar  
    35    11    57 1   
    36    12    13 ar  
    37    12    45 1   
    38    13    14 ar  
    39    13    58 1   
    40    14    59 1   
    41    15    25 1   
    42    15    33 1   
    43    15    60 1   
    44    15    61 1   
    45    16    33 1   
    46    16    62 1   
    47    16    63 1   
    48    17    18 1   
    49    17    64 1   
    50    18    65 1   
    51    18    66 1   
    52    19    20 ar  
    53    19    24 ar  
    54    20    21 ar  
    55    20    67 1   
    56    21    22 ar  
    57    21    68 1   
    58    22    23 ar  
    59    22    40 1   
    60    23    24 ar  
    61    23    69 1   
    62    24    70 1   
    63    25    26 1   
    64    25    27 1   
    65    25    74 1   
    66    26    75 1   
    67    26    76 1   
    68    26    97 1   
    69    27    77 1   
    70    27    78 1   
    71    27    79 1   
    72    28    40 1   
    73    28    44 1   
    74    28    80 1   
    75    28    81 1   
    76    29    31 1   
    77    29    41 1   
    78    29    82 1   
    79    29    83 1   
    80    30    32 1   
    81    30    42 1   
    82    30    84 1   
    83    30    85 1   
    84    31    86 1   
    85    31    87 1   
    86    31    88 1   
    87    32    89 1   
    88    32    90 1   
    89    32    91 1   
    90    33    45 1   
    91    34    92 1   
    92    35    95 1   
    93    41    44 1   
    94    42    44 1   
    95    43    44 2   
    96    45    98 2   
    97    45    99 2   
    98    71    97 1   
    99    72    97 1   
   100    73    97 1   
   101    93    96 1   
   102    94    96 1   
@<TRIPOS>SUBSTRUCTURE
     1 XUS         1 TEMP              0 ****  ****    0 ROOT
