@<TRIPOS>MOLECULE
XUV
  101   104     1     0     0
SMALL
abcg2


@<TRIPOS>ATOM
      1 C13         71.9900    57.9600    15.0870 c3         1 XUV       0.155300
      2 C15         71.6220    58.4060    16.5090 c3         1 XUV       0.094700
      3 C17         73.4210    58.9300    18.0950 c          1 XUV       0.639100
      4 C20         75.0740    59.7800    19.5750 c5         1 XUV       0.160300
      5 C21         76.2140    60.7660    19.3960 c5         1 XUV       0.152600
      6 C24         75.0520    61.6420    21.1450 c5         1 XUV       0.371300
      7 C26         72.8080    61.8720    20.7850 c5         1 XUV       0.153600
      8 C28         70.2650    59.1150    16.6040 c3         1 XUV      -0.033100
      9 C01         67.3060    52.7990    13.3380 ca         1 XUV       0.198100
     10 C02         68.3720    52.0750    13.8740 ca         1 XUV      -0.198500
     11 C03         69.2690    52.6970    14.7280 ca         1 XUV       0.025000
     12 C04         69.1140    54.0370    15.0500 ca         1 XUV      -0.352500
     13 C05         68.0510    54.7660    14.5180 ca         1 XUV       0.025000
     14 C06         67.1580    54.1520    13.6660 ca         1 XUV      -0.198500
     15 C11         72.3030    54.6150    14.4600 c3         1 XUV       0.206800
     16 C12         71.1400    56.8040    14.5540 c3         1 XUV       0.216800
     17 C23         74.5080    60.2050    20.9400 c5         1 XUV      -0.146700
     18 C25         72.9970    60.3900    21.0750 c5         1 XUV      -0.096400
     19 C29         69.9600    59.5370    18.0150 ca         1 XUV      -0.118300
     20 C30         69.7530    58.6010    19.0210 ca         1 XUV      -0.068500
     21 C31         69.5430    58.9800    20.3410 ca         1 XUV      -0.167000
     22 C32         69.5450    60.3290    20.6760 ca         1 XUV       0.130100
     23 C33         69.7080    61.2830    19.6770 ca         1 XUV      -0.167000
     24 C34         69.9190    60.8840    18.3680 ca         1 XUV      -0.068500
     25 C36         73.7780    55.0080    14.5090 c3         1 XUV      -0.059700
     26 C37         74.5990    54.0700    13.6140 c3         1 XUV      -0.075400
     27 C38         74.3020    55.0570    15.9380 c3         1 XUV      -0.089100
     28 C40         66.4500    50.9120    12.1850 c3         1 XUV       0.145900
     29 C41         69.4850    59.8890    23.0090 c3         1 XUV      -0.183400
     30 C45         70.8790    59.1000    26.2070 c3         1 XUV       0.220100
     31 C46         68.5250    62.8280    25.6080 c3         1 XUV       0.220100
     32 C47         70.3820    58.0850    27.2070 c3         1 XUV      -0.096100
     33 C48         67.2600    63.6140    25.3680 c3         1 XUV      -0.096100
     34 C50         74.7080    52.6260    14.0900 c3         1 XUV      -0.090100
     35 N10         71.4350    55.5310    15.2100 n3         1 XUV      -0.738500
     36 N16         72.6530    59.2730    17.0450 ns         1 XUV      -0.501900
     37 O08         69.5530    55.8940    16.8210 o          1 XUV      -0.539000
     38 O09         70.9130    53.7830    16.9170 o          1 XUV      -0.539000
     39 O14         71.8560    59.0020    14.1460 oh         1 XUV      -0.669000
     40 O18         73.4630    57.8310    18.6100 o          1 XUV      -0.542000
     41 O19         74.1590    59.9750    18.5000 os         1 XUV      -0.452100
     42 O22         75.7560    61.9710    19.9680 os         1 XUV      -0.462000
     43 O27         73.9720    62.4890    21.3220 os         1 XUV      -0.428000
     44 O35         69.4120    60.8010    21.9400 os         1 XUV      -0.318100
     45 O43         69.7430    59.8250    25.6980 os         1 XUV      -0.607400
     46 O44         68.5910    61.7680    24.6340 os         1 XUV      -0.607400
     47 O49         71.1990    61.5680    24.4210 o          1 XUV      -0.565000
     48 P42         69.8950    60.8640    24.4870 p5         1 XUV       1.362800
     49 S07         70.2630    54.8230    16.1370 sy         1 XUV       1.171600
     50 H131        73.0320    57.6170    15.1310 h1         1 XUV       0.054700
     51 H151        71.6060    57.5150    17.1370 h1         1 XUV       0.101700
     52 H201        75.4280    58.7500    19.5810 h1         1 XUV       0.081700
     53 H212        76.4820    60.9380    18.3530 h1         1 XUV       0.057200
     54 H211        77.1020    60.3860    19.9180 h1         1 XUV       0.057200
     55 H241        75.7120    61.7470    22.0140 h2         1 XUV       0.079700
     56 H261        71.9390    62.3010    21.2850 h1         1 XUV       0.058700
     57 H262        72.7130    62.0660    19.7120 h1         1 XUV       0.058700
     58 H282        70.2680    59.9940    15.9550 hc         1 XUV       0.061700
     59 H281        69.4850    58.4530    16.2280 hc         1 XUV       0.061700
     60 H021        68.5160    51.0280    13.6480 ha         1 XUV       0.128500
     61 H031        70.0810    52.1160    15.1450 ha         1 XUV       0.133500
     62 H051        67.9020    55.8060    14.7740 ha         1 XUV       0.133500
     63 H061        66.3260    54.7110    13.2570 ha         1 XUV       0.128500
     64 H111        71.9630    54.5690    13.4190 h1         1 XUV       0.049700
     65 H112        72.2000    53.6110    14.8710 h1         1 XUV       0.049700
     66 H122        70.0790    57.0510    14.6200 h1         1 XUV       0.061200
     67 H121        71.3560    56.6890    13.4890 h1         1 XUV       0.061200
     68 H231        74.8960    59.5260    21.7000 hc         1 XUV       0.073700
     69 H251        72.6940    60.1760    22.1020 hc         1 XUV       0.063200
     70 H252        72.3980    59.7520    20.4290 hc         1 XUV       0.063200
     71 H301        69.7580    57.5450    18.7820 ha         1 XUV       0.124500
     72 H311        69.3890    58.2100    21.0860 ha         1 XUV       0.123500
     73 H331        69.6970    62.3350    19.9330 ha         1 XUV       0.123500
     74 H341        70.0650    61.6420    17.6070 ha         1 XUV       0.124500
     75 H361        73.8820    56.0060    14.0700 hc         1 XUV       0.044700
     76 H371        75.6050    54.4880    13.5220 hc         1 XUV       0.037700
     77 H372        74.1760    54.0880    12.6050 hc         1 XUV       0.037700
     78 H383        73.8140    55.8360    16.5230 hc         1 XUV       0.043700
     79 H382        74.1390    54.1120    16.4600 hc         1 XUV       0.043700
     80 H381        75.3740    55.2620    15.9500 hc         1 XUV       0.043700
     81 H401        65.6030    50.7130    11.5340 h1         1 XUV       0.047367
     82 H402        67.3720    50.6670    11.6520 h1         1 XUV       0.047367
     83 H403        66.3720    50.2780    13.0720 h1         1 XUV       0.047367
     84 H411        68.5490    59.3360    23.1480 h1         1 XUV       0.067200
     85 H412        70.2880    59.1540    22.8740 h1         1 XUV       0.067200
     86 H451        71.4050    58.6030    25.3890 h1         1 XUV       0.038950
     87 H452        71.5740    59.7980    26.6780 h1         1 XUV       0.038950
     88 H462        68.5290    62.3980    26.6120 h1         1 XUV       0.038950
     89 H461        69.4020    63.4710    25.5120 h1         1 XUV       0.038950
     90 H472        71.2310    57.5350    27.6120 hc         1 XUV       0.047533
     91 H473        69.8660    58.5660    28.0390 hc         1 XUV       0.047533
     92 H471        69.7050    57.3670    26.7450 hc         1 XUV       0.047533
     93 H482        67.1930    64.4180    26.1010 hc         1 XUV       0.047533
     94 H481        67.2530    64.0640    24.3760 hc         1 XUV       0.047533
     95 H483        66.3740    62.9890    25.4760 hc         1 XUV       0.047533
     96 H503        75.2880    52.0360    13.3800 hc         1 XUV       0.033367
     97 H502        75.2100    52.5540    15.0550 hc         1 XUV       0.033367
     98 H501        73.7350    52.1430    14.1880 hc         1 XUV       0.033367
     99 H161        72.6540    60.2420    16.7620 hn         1 XUV       0.321500
    100 H141        72.5500    59.6510    14.2970 ho         1 XUV       0.452000
    101 O39         66.3840    52.2870    12.5180 os         1 XUV      -0.333100
@<TRIPOS>BOND
     1     1     2 1   
     2     1    16 1   
     3     1    39 1   
     4     1    50 1   
     5     2     8 1   
     6     2    36 1   
     7     2    51 1   
     8     3    36 1   
     9     3    40 2   
    10     3    41 1   
    11     4     5 1   
    12     4    17 1   
    13     4    41 1   
    14     4    52 1   
    15     5    42 1   
    16     5    53 1   
    17     5    54 1   
    18     6    17 1   
    19     6    42 1   
    20     6    43 1   
    21     6    55 1   
    22     7    18 1   
    23     7    43 1   
    24     7    56 1   
    25     7    57 1   
    26     8    19 1   
    27     8    58 1   
    28     8    59 1   
    29     9    10 ar  
    30     9    14 ar  
    31     9   101 1   
    32    10    11 ar  
    33    10    60 1   
    34    11    12 ar  
    35    11    61 1   
    36    12    13 ar  
    37    12    49 1   
    38    13    14 ar  
    39    13    62 1   
    40    14    63 1   
    41    15    25 1   
    42    15    35 1   
    43    15    64 1   
    44    15    65 1   
    45    16    35 1   
    46    16    66 1   
    47    16    67 1   
    48    17    18 1   
    49    17    68 1   
    50    18    69 1   
    51    18    70 1   
    52    19    20 ar  
    53    19    24 ar  
    54    20    21 ar  
    55    20    71 1   
    56    21    22 ar  
    57    21    72 1   
    58    22    23 ar  
    59    22    44 1   
    60    23    24 ar  
    61    23    73 1   
    62    24    74 1   
    63    25    26 1   
    64    25    27 1   
    65    25    75 1   
    66    26    34 1   
    67    26    76 1   
    68    26    77 1   
    69    27    78 1   
    70    27    79 1   
    71    27    80 1   
    72    28    81 1   
    73    28    82 1   
    74    28    83 1   
    75    28   101 1   
    76    29    44 1   
    77    29    48 1   
    78    29    84 1   
    79    29    85 1   
    80    30    32 1   
    81    30    45 1   
    82    30    86 1   
    83    30    87 1   
    84    31    33 1   
    85    31    46 1   
    86    31    88 1   
    87    31    89 1   
    88    32    90 1   
    89    32    91 1   
    90    32    92 1   
    91    33    93 1   
    92    33    94 1   
    93    33    95 1   
    94    34    96 1   
    95    34    97 1   
    96    34    98 1   
    97    35    49 1   
    98    36    99 1   
    99    37    49 2   
   100    38    49 2   
   101    39   100 1   
   102    45    48 1   
   103    46    48 1   
   104    47    48 2   
@<TRIPOS>SUBSTRUCTURE
     1 XUV         1 TEMP              0 ****  ****    0 ROOT
