@<TRIPOS>MOLECULE
XUV
  101   104     1     0     0
SMALL
No Charge or Current Charge


@<TRIPOS>ATOM
      1 C13         71.7310    57.6950    15.1670 c3         1 XUV       0.155300
      2 C15         71.5380    58.1970    16.6330 c3         1 XUV       0.094700
      3 C17         73.6700    58.9130    17.7570 c          1 XUV       0.639100
      4 C20         75.4400    59.9930    18.9350 c5         1 XUV       0.160300
      5 C21         76.3490    61.2180    18.6500 c5         1 XUV       0.152600
      6 C24         75.4610    61.7040    20.7250 c5         1 XUV       0.371300
      7 C26         73.1520    61.6820    20.5830 c5         1 XUV       0.153600
      8 C28         70.1290    58.7650    16.9590 c3         1 XUV      -0.033100
      9 C01         67.3400    52.9520    12.9300 ca         1 XUV       0.198100
     10 C02         68.4220    52.1500    13.3510 ca         1 XUV      -0.198500
     11 C03         69.2530    52.5810    14.3980 ca         1 XUV       0.025000
     12 C04         69.0110    53.8180    15.0270 ca         1 XUV      -0.352500
     13 C05         67.9250    54.6150    14.6140 ca         1 XUV       0.025000
     14 C06         67.0980    54.1770    13.5670 ca         1 XUV      -0.198500
     15 C11         72.1700    54.2750    14.6940 c3         1 XUV       0.206800
     16 C12         70.8990    56.4200    14.8260 c3         1 XUV       0.216800
     17 C23         75.0670    60.2120    20.4600 c5         1 XUV      -0.146700
     18 C25         73.5230    60.1930    20.7640 c5         1 XUV      -0.096400
     19 C29         70.0190    59.2650    18.3980 ca         1 XUV      -0.118300
     20 C30         70.1520    58.3630    19.4730 ca         1 XUV      -0.068500
     21 C31         70.0900    58.8240    20.8000 ca         1 XUV      -0.167000
     22 C32         69.8860    60.1950    21.0620 ca         1 XUV       0.130100
     23 C33         69.7370    61.0900    19.9910 ca         1 XUV      -0.167000
     24 C34         69.8050    60.6310    18.6650 ca         1 XUV      -0.068500
     25 C36         73.5560    54.8270    14.2580 c3         1 XUV      -0.059700
     26 C37         74.2420    53.9200    13.1970 c3         1 XUV      -0.075400
     27 C38         74.4770    55.1050    15.4730 c3         1 XUV      -0.089100
     28 C40         66.6510    51.3430    11.1890 c3         1 XUV       0.145900
     29 C41         70.0600    59.8810    23.5140 c3         1 XUV      -0.183400
     30 C45         70.3780    59.9980    27.6030 c3         1 XUV       0.220100
     31 C46         67.8830    62.2330    26.0050 c3         1 XUV       0.220100
     32 C47         69.0580    59.6450    28.3110 c3         1 XUV      -0.096100
     33 C48         67.9470    63.5000    25.1300 c3         1 XUV      -0.096100
     34 C50         74.5790    52.4820    13.6550 c3         1 XUV      -0.090100
     35 N10         71.3360    55.1790    15.5340 n3         1 XUV      -0.738500
     36 N16         72.5670    59.1840    17.0000 ns         1 XUV      -0.501900
     37 O08         69.3940    55.3900    17.1620 o          1 XUV      -0.539000
     38 O09         70.6960    53.2090    17.0160 o          1 XUV      -0.539000
     39 O14         71.4300    58.7470    14.2270 oh         1 XUV      -0.669000
     40 O18         73.9980    57.8040    18.1470 o          1 XUV      -0.542000
     41 O19         74.2900    60.0960    18.0450 os         1 XUV      -0.452100
     42 O22         75.7730    62.2700    19.4420 os         1 XUV      -0.462000
     43 O27         74.2660    62.3440    21.2080 os         1 XUV      -0.428000
     44 O35         69.8410    60.7070    22.3430 os         1 XUV      -0.318100
     45 O43         70.2440    59.6850    26.2100 os         1 XUV      -0.607400
     46 O44         68.3880    61.1170    25.2570 os         1 XUV      -0.607400
     47 O49         70.8840    62.0180    25.1640 o          1 XUV      -0.565000
     48 P42         69.9770    60.8360    25.1020 p5         1 XUV       1.362800
     49 S07         70.0800    54.3700    16.3640 sy         1 XUV       1.171600
     50 H131        72.7890    57.4290    15.0630 h1         1 XUV       0.054700
     51 H151        71.6810    57.3190    17.2780 h1         1 XUV       0.101700
     52 H201        75.9930    59.0600    18.7520 h1         1 XUV       0.081700
     53 H212        76.3640    61.5050    17.5900 h1         1 XUV       0.057200
     54 H211        77.3810    61.0390    18.9840 h1         1 XUV       0.057200
     55 H241        76.3000    61.8120    21.4260 h2         1 XUV       0.079700
     56 H261        72.2170    61.9580    21.0880 h1         1 XUV       0.058700
     57 H262        73.0910    61.9750    19.5260 h1         1 XUV       0.058700
     58 H282        69.8970    59.5790    16.2610 hc         1 XUV       0.061700
     59 H281        69.3670    57.9980    16.7850 hc         1 XUV       0.061700
     60 H021        68.6330    51.1950    12.8810 ha         1 XUV       0.128500
     61 H031        70.0830    51.9510    14.7140 ha         1 XUV       0.133500
     62 H051        67.7150    55.5680    15.0980 ha         1 XUV       0.133500
     63 H061        66.2620    54.7930    13.2470 ha         1 XUV       0.128500
     64 H111        71.6100    53.9990    13.7900 h1         1 XUV       0.049700
     65 H112        72.3690    53.3410    15.2340 h1         1 XUV       0.049700
     66 H122        69.8480    56.6540    15.0310 h1         1 XUV       0.061200
     67 H121        70.9480    56.2620    13.7400 h1         1 XUV       0.061200
     68 H231        75.6240    59.5270    21.1090 hc         1 XUV       0.073700
     69 H251        73.3400    59.8920    21.8020 hc         1 XUV       0.063200
     70 H252        72.9250    59.5190    20.1470 hc         1 XUV       0.063200
     71 H301        70.3120    57.3050    19.2800 ha         1 XUV       0.124500
     72 H311        70.2050    58.1080    21.6070 ha         1 XUV       0.123500
     73 H331        69.5780    62.1460    20.1910 ha         1 XUV       0.123500
     74 H341        69.7000    61.3410    17.8470 ha         1 XUV       0.124500
     75 H361        73.3900    55.7830    13.7490 hc         1 XUV       0.044700
     76 H371        75.1670    54.4050    12.8620 hc         1 XUV       0.037700
     77 H372        73.5940    53.8590    12.3130 hc         1 XUV       0.037700
     78 H383        74.0180    55.8280    16.1560 hc         1 XUV       0.043700
     79 H382        74.6690    54.1890    16.0430 hc         1 XUV       0.043700
     80 H381        75.4400    55.5160    15.1460 hc         1 XUV       0.043700
     81 H401        65.8740    51.2470    10.4210 h1         1 XUV       0.047367
     82 H402        67.6280    51.3050    10.6900 h1         1 XUV       0.047367
     83 H403        66.5670    50.4840    11.8670 h1         1 XUV       0.047367
     84 H411        69.2990    59.0950    23.5930 h1         1 XUV       0.067200
     85 H412        71.0530    59.4180    23.4910 h1         1 XUV       0.067200
     86 H451        71.1930    59.4110    28.0460 h1         1 XUV       0.038950
     87 H452        70.6050    61.0610    27.7590 h1         1 XUV       0.038950
     88 H462        66.8400    62.0480    26.2930 h1         1 XUV       0.038950
     89 H461        68.4620    62.3950    26.9250 h1         1 XUV       0.038950
     90 H472        69.1380    59.8560    29.3830 hc         1 XUV       0.047533
     91 H473        68.2170    60.2210    27.9130 hc         1 XUV       0.047533
     92 H471        68.8340    58.5780    28.1900 hc         1 XUV       0.047533
     93 H482        67.4520    64.3330    25.6430 hc         1 XUV       0.047533
     94 H481        68.9800    63.8010    24.9250 hc         1 XUV       0.047533
     95 H483        67.4320    63.3350    24.1760 hc         1 XUV       0.047533
     96 H503        75.0590    51.9310    12.8380 hc         1 XUV       0.033367
     97 H502        75.2710    52.4880    14.5050 hc         1 XUV       0.033367
     98 H501        73.6750    51.9330    13.9420 hc         1 XUV       0.033367
     99 H161        72.3990    60.1620    16.8100 hn         1 XUV       0.321500
    100 H141        72.0960    59.4560    14.3700 ho         1 XUV       0.452000
    101 O39         66.4910    52.5800    11.9070 os         1 XUV      -0.333100
@<TRIPOS>BOND
     1     1     2 1   
     2     1    16 1   
     3     1    39 1   
     4     1    50 1   
     5     2     8 1   
     6     2    36 1   
     7     2    51 1   
     8     3    36 1   
     9     3    40 2   
    10     3    41 1   
    11     4     5 1   
    12     4    17 1   
    13     4    41 1   
    14     4    52 1   
    15     5    42 1   
    16     5    53 1   
    17     5    54 1   
    18     6    17 1   
    19     6    42 1   
    20     6    43 1   
    21     6    55 1   
    22     7    18 1   
    23     7    43 1   
    24     7    56 1   
    25     7    57 1   
    26     8    19 1   
    27     8    58 1   
    28     8    59 1   
    29     9    10 ar  
    30     9    14 ar  
    31     9   101 1   
    32    10    11 ar  
    33    10    60 1   
    34    11    12 ar  
    35    11    61 1   
    36    12    13 ar  
    37    12    49 1   
    38    13    14 ar  
    39    13    62 1   
    40    14    63 1   
    41    15    25 1   
    42    15    35 1   
    43    15    64 1   
    44    15    65 1   
    45    16    35 1   
    46    16    66 1   
    47    16    67 1   
    48    17    18 1   
    49    17    68 1   
    50    18    69 1   
    51    18    70 1   
    52    19    20 ar  
    53    19    24 ar  
    54    20    21 ar  
    55    20    71 1   
    56    21    22 ar  
    57    21    72 1   
    58    22    23 ar  
    59    22    44 1   
    60    23    24 ar  
    61    23    73 1   
    62    24    74 1   
    63    25    26 1   
    64    25    27 1   
    65    25    75 1   
    66    26    34 1   
    67    26    76 1   
    68    26    77 1   
    69    27    78 1   
    70    27    79 1   
    71    27    80 1   
    72    28    81 1   
    73    28    82 1   
    74    28    83 1   
    75    28   101 1   
    76    29    44 1   
    77    29    48 1   
    78    29    84 1   
    79    29    85 1   
    80    30    32 1   
    81    30    45 1   
    82    30    86 1   
    83    30    87 1   
    84    31    33 1   
    85    31    46 1   
    86    31    88 1   
    87    31    89 1   
    88    32    90 1   
    89    32    91 1   
    90    32    92 1   
    91    33    93 1   
    92    33    94 1   
    93    33    95 1   
    94    34    96 1   
    95    34    97 1   
    96    34    98 1   
    97    35    49 1   
    98    36    99 1   
    99    37    49 2   
   100    38    49 2   
   101    39   100 1   
   102    45    48 1   
   103    46    48 1   
   104    47    48 2   
@<TRIPOS>SUBSTRUCTURE
     1 XUV         1 TEMP              0 ****  ****    0 ROOT
