@<TRIPOS>MOLECULE
XUY
   75    79     1     0     0
SMALL
bcc


@<TRIPOS>ATOM
      1 C10         19.2060    -1.4030    14.5460 c3         1 XUY       0.217800
      2 C13         19.7440     0.2280    16.4640 c3         1 XUY       0.099700
      3 C15         21.6330     0.7340    17.9550 c          1 XUY       0.756100
      4 C21         22.8650     2.2000    20.6310 c5         1 XUY      -0.147700
      5 C22         23.4840     3.6190    20.6430 c5         1 XUY       0.324900
      6 C24         21.2470     3.9050    20.2310 c5         1 XUY       0.129400
      7 C26         18.4030     0.9590    16.5880 c3         1 XUY      -0.043100
      8 C28         17.8690     0.4150    18.9910 ca         1 XUY      -0.120000
      9 C01         15.8040    -4.6520    13.3180 ca         1 XUY      -0.088000
     10 C02         16.4760    -3.8560    14.2190 ca         1 XUY      -0.052000
     11 C03         17.4150    -4.4210    15.0940 ca         1 XUY      -0.293500
     12 C04         17.6940    -5.7740    15.0990 ca         1 XUY       0.017000
     13 C09         20.4000    -3.5830    14.5900 c3         1 XUY       0.207800
     14 C11         20.0670    -0.2370    15.0360 c3         1 XUY       0.129100
     15 C18         23.3820     1.5790    19.3240 c5         1 XUY       0.137100
     16 C19         24.5970     2.4410    19.0370 c5         1 XUY       0.129400
     17 C23         21.3670     2.4790    20.7500 c5         1 XUY      -0.098400
     18 C27         18.1190     1.3710    18.0070 ca         1 XUY      -0.083300
     19 C29         17.6250     0.7920    20.3040 ca         1 XUY      -0.132000
     20 C30         17.6220     2.1360    20.6570 ca         1 XUY      -0.132000
     21 C31         17.8670     3.0960    19.6860 ca         1 XUY      -0.132000
     22 C32         18.1190     2.7140    18.3740 ca         1 XUY      -0.120000
     23 C33         21.8730    -3.1950    14.6670 c3         1 XUY      -0.063700
     24 C34         22.6790    -4.2090    13.8620 c3         1 XUY      -0.092600
     25 C35         22.3630    -3.1200    16.1060 c3         1 XUY      -0.092600
     26 C36         15.9380    -8.1130    12.6740 cc         1 XUY       0.397100
     27 C38         17.0090    -6.5640    14.1850 ca         1 XUY      -0.091100
     28 C39         16.0710    -6.0220    13.2920 ca         1 XUY       0.132400
     29 N08         19.4900    -2.6460    15.2620 n3         1 XUY      -0.744500
     30 N14         20.8040     1.0850    16.9560 ns         1 XUY      -0.572900
     31 N40         15.4830    -6.9320    12.4490 nd         1 XUY      -0.528100
     32 O06         18.9740    -4.1780    17.1770 o          1 XUY      -0.602300
     33 O07         17.4040    -2.3020    16.6280 o          1 XUY      -0.602300
     34 O12         19.8980     0.7900    14.0860 oh         1 XUY      -0.603800
     35 O16         21.6430    -0.3390    18.5220 o          1 XUY      -0.587000
     36 O17         22.4690     1.7430    18.2420 os         1 XUY      -0.430900
     37 O20         24.2410     3.7390    19.4600 os         1 XUY      -0.412600
     38 O25         22.4490     4.5400    20.6550 os         1 XUY      -0.394600
     39 S05         18.3140    -3.3460    16.1860 sy         1 XUY       1.306200
     40 S37         17.1240    -8.2680    13.9280 ss         1 XUY      -0.070100
     41 H102        18.1490    -1.1450    14.6070 h1         1 XUY       0.065700
     42 H101        19.4220    -1.5660    13.4870 h1         1 XUY       0.065700
     43 H131        19.7320    -0.6550    17.1040 h1         1 XUY       0.096700
     44 H221        24.1230     3.8170    21.5110 h2         1 XUY       0.079700
     45 H241        20.4060     4.4510    20.6570 h1         1 XUY       0.054700
     46 H242        21.1470     3.9320    19.1400 h1         1 XUY       0.054700
     47 H262        18.4080     1.8410    15.9440 hc         1 XUY       0.066200
     48 H261        17.6050     0.3100    16.2240 hc         1 XUY       0.066200
     49 H281        17.8550    -0.6350    18.7250 ha         1 XUY       0.136500
     50 H011        15.0760    -4.2280    12.6390 ha         1 XUY       0.157000
     51 H021        16.2650    -2.7960    14.2460 ha         1 XUY       0.151000
     52 H041        18.4130    -6.2040    15.7830 ha         1 XUY       0.168000
     53 H092        20.0930    -3.6810    13.5430 h1         1 XUY       0.047200
     54 H091        20.2990    -4.5730    15.0390 h1         1 XUY       0.047200
     55 H111        21.1110    -0.5730    15.0550 h1         1 XUY       0.052700
     56 H181        23.6450     0.5290    19.4390 h1         1 XUY       0.086700
     57 H191        24.8740     2.4670    17.9820 h1         1 XUY       0.060200
     58 H192        25.4540     2.0540    19.6040 h1         1 XUY       0.060200
     59 H232        21.0750     2.4410    21.8010 hc         1 XUY       0.066200
     60 H231        20.7230     1.7780    20.2220 hc         1 XUY       0.066200
     61 H291        17.4300     0.0350    21.0530 ha         1 XUY       0.130500
     62 H301        17.4280     2.4310    21.6800 ha         1 XUY       0.129000
     63 H311        17.8670     4.1470    19.9490 ha         1 XUY       0.130500
     64 H321        18.3090     3.4720    17.6230 ha         1 XUY       0.136500
     65 H331        22.0100    -2.2180    14.1930 hc         1 XUY       0.047700
     66 H343        23.7380    -3.9480    13.8620 hc         1 XUY       0.040533
     67 H341        22.5840    -5.2120    14.2850 hc         1 XUY       0.040533
     68 H342        22.3470    -4.2520    12.8230 hc         1 XUY       0.040533
     69 H352        21.8090    -2.3880    16.6910 hc         1 XUY       0.040533
     70 H351        22.2590    -4.0890    16.6000 hc         1 XUY       0.040533
     71 H353        23.4170    -2.8420    16.1400 hc         1 XUY       0.040533
     72 H361        15.6190    -8.9910    12.1270 h5         1 XUY       0.063800
     73 H141        20.8450     2.0350    16.6210 hn         1 XUY       0.323500
     74 H121        20.6210     1.4190    14.1730 ho         1 XUY       0.412000
     75 H211        23.2320     1.6030    21.4660 hc         1 XUY       0.077700
@<TRIPOS>BOND
     1     1    14 1   
     2     1    29 1   
     3     1    41 1   
     4     1    42 1   
     5     2     7 1   
     6     2    14 1   
     7     2    30 1   
     8     2    43 1   
     9     3    30 1   
    10     3    35 2   
    11     3    36 1   
    12     4     5 1   
    13     4    15 1   
    14     4    17 1   
    15     4    75 1   
    16     5    37 1   
    17     5    38 1   
    18     5    44 1   
    19     6    17 1   
    20     6    38 1   
    21     6    45 1   
    22     6    46 1   
    23     7    18 1   
    24     7    47 1   
    25     7    48 1   
    26     8    18 ar  
    27     8    19 ar  
    28     8    49 1   
    29     9    10 ar  
    30     9    28 ar  
    31     9    50 1   
    32    10    11 ar  
    33    10    51 1   
    34    11    12 ar  
    35    11    39 1   
    36    12    27 ar  
    37    12    52 1   
    38    13    23 1   
    39    13    29 1   
    40    13    53 1   
    41    13    54 1   
    42    14    34 1   
    43    14    55 1   
    44    15    16 1   
    45    15    36 1   
    46    15    56 1   
    47    16    37 1   
    48    16    57 1   
    49    16    58 1   
    50    17    59 1   
    51    17    60 1   
    52    18    22 ar  
    53    19    20 ar  
    54    19    61 1   
    55    20    21 ar  
    56    20    62 1   
    57    21    22 ar  
    58    21    63 1   
    59    22    64 1   
    60    23    24 1   
    61    23    25 1   
    62    23    65 1   
    63    24    66 1   
    64    24    67 1   
    65    24    68 1   
    66    25    69 1   
    67    25    70 1   
    68    25    71 1   
    69    26    31 2   
    70    26    40 1   
    71    26    72 1   
    72    27    28 ar  
    73    27    40 1   
    74    28    31 1   
    75    29    39 1   
    76    30    73 1   
    77    32    39 2   
    78    33    39 2   
    79    34    74 1   
@<TRIPOS>SUBSTRUCTURE
     1 XUY         1 TEMP              0 ****  ****    0 ROOT
