@<TRIPOS>MOLECULE
XUY
   75    79     1     0     0
SMALL
No Charge or Current Charge


@<TRIPOS>ATOM
      1 C10         19.2660    -1.9180    14.9140 c3         1 XUY       0.217800
      2 C13         19.8120    -0.0020    16.6060 c3         1 XUY       0.099700
      3 C15         21.8130     0.7820    17.9130 c          1 XUY       0.640100
      4 C21         22.9290     2.4500    20.5410 c5         1 XUY      -0.147700
      5 C22         23.3800     3.9490    20.6050 c5         1 XUY       0.371300
      6 C24         21.1170     3.9950    20.1230 c5         1 XUY       0.152600
      7 C26         18.4040     0.6410    16.7420 c3         1 XUY      -0.043100
      8 C28         18.1160     0.3980    19.2610 ca         1 XUY      -0.102000
      9 C01         15.6070    -4.1450    13.2710 ca         1 XUY      -0.070000
     10 C02         16.2850    -3.6370    14.3970 ca         1 XUY      -0.034000
     11 C03         17.2610    -4.4260    15.0550 ca         1 XUY      -0.293500
     12 C04         17.5420    -5.7270    14.5880 ca         1 XUY       0.035000
     13 C09         20.4630    -4.0940    15.1950 c3         1 XUY       0.207800
     14 C11         20.1160    -0.6460    15.2160 c3         1 XUY       0.152300
     15 C18         23.4870     1.9510    19.1450 c5         1 XUY       0.160300
     16 C19         24.5170     3.0600    18.8010 c5         1 XUY       0.152600
     17 C23         21.3600     2.5510    20.6170 c5         1 XUY      -0.098400
     18 C27         18.1550     1.2350    18.1270 ca         1 XUY      -0.083300
     19 C29         17.8930     0.9420    20.5380 ca         1 XUY      -0.114000
     20 C30         17.7010     2.3250    20.6900 ca         1 XUY      -0.114000
     21 C31         17.7320     3.1640    19.5630 ca         1 XUY      -0.114000
     22 C32         17.9610     2.6210    18.2870 ca         1 XUY      -0.102000
     23 C33         21.9160    -3.6220    14.9210 c3         1 XUY      -0.063700
     24 C34         22.7180    -4.7110    14.1730 c3         1 XUY      -0.092600
     25 C35         22.6460    -3.2010    16.2200 c3         1 XUY      -0.092600
     26 C36         15.8130    -7.2490    11.5680 cc         1 XUY       0.397100
     27 C38         16.8480    -6.1990    13.4630 ca         1 XUY      -0.218000
     28 C39         15.9020    -5.4360    12.8100 ca         1 XUY       0.132400
     29 N08         19.5430    -3.0910    15.7990 n3         1 XUY      -0.744500
     30 N14         20.8430     0.9810    16.9730 ns         1 XUY      -0.505900
     31 N40         15.2870    -6.0210    11.7100 nd         1 XUY      -0.528100
     32 O06         18.6000    -4.8990    17.3260 o          1 XUY      -0.531500
     33 O07         17.3870    -2.6760    17.0840 o          1 XUY      -0.531500
     34 O12         19.9440     0.3220    14.1600 oh         1 XUY      -0.666000
     35 O16         22.0030    -0.2620    18.5150 o          1 XUY      -0.538000
     36 O17         22.4800     1.9610    18.0910 os         1 XUY      -0.454100
     37 O20         23.9130     4.2630    19.3080 os         1 XUY      -0.459000
     38 O25         22.1740     4.7150    20.7810 os         1 XUY      -0.441000
     39 S05         18.1410    -3.7850    16.4900 sy         1 XUY       1.164600
     40 S37         17.0570    -7.7780    12.7230 ss         1 XUY       0.056800
     41 H102        18.2130    -1.6170    14.9610 h1         1 XUY       0.065700
     42 H101        19.4330    -2.2000    13.8650 h1         1 XUY       0.065700
     43 H131        19.8590    -0.8200    17.3380 h1         1 XUY       0.096700
     44 H221        24.1150     4.1450    21.3980 h2         1 XUY       0.079700
     45 H241        20.1410     4.3940    20.4260 h1         1 XUY       0.054700
     46 H242        21.2240     4.0910    19.0340 h1         1 XUY       0.054700
     47 H262        18.2860     1.4160    15.9750 hc         1 XUY       0.066200
     48 H261        17.6330    -0.1060    16.5310 hc         1 XUY       0.066200
     49 H281        18.2590    -0.6750    19.1530 ha         1 XUY       0.118500
     50 H011        14.8600    -3.5410    12.7630 ha         1 XUY       0.139000
     51 H021        16.0480    -2.6360    14.7530 ha         1 XUY       0.133000
     52 H041        18.2810    -6.3580    15.0800 ha         1 XUY       0.150000
     53 H092        20.0350    -4.4540    14.2490 h1         1 XUY       0.047200
     54 H091        20.5500    -4.9720    15.8480 h1         1 XUY       0.047200
     55 H111        21.1670    -0.9530    15.2360 h1         1 XUY       0.052700
     56 H181        23.9870     0.9730    19.2000 h1         1 XUY       0.086700
     57 H191        24.7040     3.1540    17.7230 h1         1 XUY       0.060200
     58 H192        25.4740     2.8930    19.3130 h1         1 XUY       0.060200
     59 H232        21.0200     2.4540    21.6540 hc         1 XUY       0.066200
     60 H231        20.8070     1.7980    20.0500 hc         1 XUY       0.066200
     61 H291        17.8680     0.2900    21.4080 ha         1 XUY       0.112500
     62 H301        17.5270     2.7460    21.6780 ha         1 XUY       0.111000
     63 H311        17.5810     4.2350    19.6790 ha         1 XUY       0.112500
     64 H321        17.9860     3.2820    17.4230 ha         1 XUY       0.118500
     65 H331        21.8780    -2.7570    14.2500 hc         1 XUY       0.047700
     66 H343        23.7310    -4.3580    13.9420 hc         1 XUY       0.040533
     67 H341        22.8030    -5.6220    14.7790 hc         1 XUY       0.040533
     68 H342        22.2290    -4.9730    13.2270 hc         1 XUY       0.040533
     69 H352        22.0870    -2.4250    16.7540 hc         1 XUY       0.040533
     70 H351        22.7620    -4.0560    16.8950 hc         1 XUY       0.040533
     71 H353        23.6430    -2.8040    15.9930 hc         1 XUY       0.040533
     72 H361        15.5210    -7.9390    10.7870 h5         1 XUY       0.063800
     73 H141        20.7790     1.9220    16.6080 hn         1 XUY       0.323500
     74 H121        20.6530     0.9930    14.2670 ho         1 XUY       0.451000
     75 H211        23.3470     1.8690    21.3700 hc         1 XUY       0.077700
@<TRIPOS>BOND
     1     1    14 1   
     2     1    29 1   
     3     1    41 1   
     4     1    42 1   
     5     2     7 1   
     6     2    14 1   
     7     2    30 1   
     8     2    43 1   
     9     3    30 1   
    10     3    35 2   
    11     3    36 1   
    12     4     5 1   
    13     4    15 1   
    14     4    17 1   
    15     4    75 1   
    16     5    37 1   
    17     5    38 1   
    18     5    44 1   
    19     6    17 1   
    20     6    38 1   
    21     6    45 1   
    22     6    46 1   
    23     7    18 1   
    24     7    47 1   
    25     7    48 1   
    26     8    18 ar  
    27     8    19 ar  
    28     8    49 1   
    29     9    10 ar  
    30     9    28 ar  
    31     9    50 1   
    32    10    11 ar  
    33    10    51 1   
    34    11    12 ar  
    35    11    39 1   
    36    12    27 ar  
    37    12    52 1   
    38    13    23 1   
    39    13    29 1   
    40    13    53 1   
    41    13    54 1   
    42    14    34 1   
    43    14    55 1   
    44    15    16 1   
    45    15    36 1   
    46    15    56 1   
    47    16    37 1   
    48    16    57 1   
    49    16    58 1   
    50    17    59 1   
    51    17    60 1   
    52    18    22 ar  
    53    19    20 ar  
    54    19    61 1   
    55    20    21 ar  
    56    20    62 1   
    57    21    22 ar  
    58    21    63 1   
    59    22    64 1   
    60    23    24 1   
    61    23    25 1   
    62    23    65 1   
    63    24    66 1   
    64    24    67 1   
    65    24    68 1   
    66    25    69 1   
    67    25    70 1   
    68    25    71 1   
    69    26    31 2   
    70    26    40 1   
    71    26    72 1   
    72    27    28 ar  
    73    27    40 1   
    74    28    31 1   
    75    29    39 1   
    76    30    73 1   
    77    32    39 2   
    78    33    39 2   
    79    34    74 1   
@<TRIPOS>SUBSTRUCTURE
     1 XUY         1 TEMP              0 ****  ****    0 ROOT
