@<TRIPOS>MOLECULE
XUZ
   57    62     1     0     0
SMALL
No Charge or Current Charge


@<TRIPOS>ATOM
      1 C13         17.0110   -17.3990   -32.5590 ca         1 XUZ      -0.150600
      2 C15         15.5930   -17.5460   -34.5240 ca         1 XUZ      -0.044000
      3 C17         15.4140   -15.6320   -32.9660 ca         1 XUZ      -0.016000
      4 C21         14.3660   -12.3510   -31.3350 ca         1 XUZ      -0.132600
      5 C22         14.8070   -11.4890   -32.3710 ca         1 XUZ      -0.103000
      6 C26         13.8780   -10.3770   -29.9430 ca         1 XUZ      -0.181300
      7 C28         13.3940    -9.7940   -28.6110 c3         1 XUZ       0.361300
      8 C02         18.7280   -12.5920   -32.4710 ca         1 XUZ       0.167000
      9 C03         18.5630   -11.6290   -31.4680 ca         1 XUZ      -0.136000
     10 C04         17.9530   -11.9900   -30.2550 ca         1 XUZ      -0.085000
     11 C05         17.5020   -13.3060   -30.0510 ca         1 XUZ       0.105000
     12 C07         17.6440   -14.2830   -31.0700 ca         1 XUZ      -0.066300
     13 C08         18.2770   -13.9060   -32.2770 ca         1 XUZ      -0.128000
     14 C09         17.0980   -15.7070   -30.9080 c5         1 XUZ       0.203300
     15 C11         18.0950   -17.7250   -31.6030 c          1 XUZ       0.582600
     16 C14         16.6250   -18.0870   -33.7170 ca         1 XUZ      -0.030000
     17 C16         15.0270   -16.2940   -34.1500 ca         1 XUZ      -0.089000
     18 C19         14.4290   -13.8590   -31.4590 c          1 XUZ       0.618700
     19 C23         14.7840   -10.0990   -32.1900 ca         1 XUZ       0.159000
     20 C25         14.3260    -9.5410   -30.9890 ca         1 XUZ      -0.086000
     21 C27         13.9080   -11.7770   -30.1260 ca         1 XUZ      -0.020000
     22 C32         16.4160   -16.2180   -32.1700 ca         1 XUZ      -0.070300
     23 C33         15.2000   -18.2430   -35.7690 cc         1 XUZ      -0.030000
     24 C34         16.2050   -18.9400   -36.5520 cc         1 XUZ      -0.090000
     25 C35         15.8790   -19.6630   -37.6760 cd         1 XUZ      -0.063000
     26 C36         14.4970   -19.6950   -37.9970 cd         1 XUZ      -0.068000
     27 C38         12.5870   -20.0170   -38.7940 cc         1 XUZ       0.534200
     28 C41         13.8220   -18.3610   -36.0610 cd         1 XUZ       0.039000
     29 C42         12.7300   -17.9060   -35.2630 ch         1 XUZ       0.318000
     30 F24         15.2180    -9.2900   -33.1810 f          1 XUZ      -0.167000
     31 F29         14.3480    -9.8940   -27.6580 f          1 XUZ      -0.107000
     32 F30         13.0620    -8.4850   -28.7010 f          1 XUZ      -0.107000
     33 F31         12.3000   -10.4390   -28.1450 f          1 XUZ      -0.107000
     34 N10         18.1480   -16.7130   -30.6710 ns         1 XUZ      -0.512900
     35 N18         14.8800   -14.3570   -32.6690 ns         1 XUZ      -0.169000
     36 N37         13.9160   -20.3040   -39.0030 nc         1 XUZ      -0.381300
     37 N39         12.2770   -19.2780   -37.7310 nd         1 XUZ      -0.580100
     38 N40         13.5370   -19.0740   -37.2410 na         1 XUZ       0.302400
     39 N43         11.8550   -17.5290   -34.5870 n1         1 XUZ      -0.387000
     40 O12         18.8270   -18.7010   -31.6260 o          1 XUZ      -0.526000
     41 O20         14.1300   -14.5980   -30.5280 o          1 XUZ      -0.555100
     42 Cl06        16.7550   -13.6870   -28.4990 cl         1 XUZ      -0.175000
     43 H221        15.1860   -11.8750   -33.3130 ha         1 XUZ       0.138000
     44 H031        18.9110   -10.6120   -31.6280 ha         1 XUZ       0.144000
     45 H041        17.8280   -11.2480   -29.4690 ha         1 XUZ       0.139000
     46 H081        18.4130   -14.6310   -33.0760 ha         1 XUZ       0.144000
     47 H091        16.3640   -15.7460   -30.0930 h1         1 XUZ       0.106700
     48 H141        17.1120   -19.0240   -33.9740 ha         1 XUZ       0.145000
     49 H161        14.3050   -15.8070   -34.8000 ha         1 XUZ       0.130000
     50 H251        14.3310    -8.4590   -30.8780 ha         1 XUZ       0.152000
     51 H271        13.5840   -12.4260   -29.3120 ha         1 XUZ       0.161000
     52 H341        17.2480   -18.8620   -36.2620 ha         1 XUZ       0.139000
     53 H351        16.6280   -20.1690   -38.2770 ha         1 XUZ       0.156000
     54 H381        11.8550   -20.4060   -39.4920 h5         1 XUZ       0.078800
     55 H101        18.8210   -16.7410   -29.9150 hn         1 XUZ       0.341500
     56 H181        14.9830   -13.6750   -33.4070 hn         1 XUZ       0.167000
     57 F01         19.3180   -12.2510   -33.6380 f          1 XUZ      -0.168000
@<TRIPOS>BOND
     1     1    15 1   
     2     1    16 ar  
     3     1    22 ar  
     4     2    16 ar  
     5     2    17 ar  
     6     2    23 1   
     7     3    17 ar  
     8     3    22 ar  
     9     3    35 1   
    10     4     5 ar  
    11     4    18 1   
    12     4    21 ar  
    13     5    19 ar  
    14     5    43 1   
    15     6     7 1   
    16     6    20 ar  
    17     6    21 ar  
    18     7    31 1   
    19     7    32 1   
    20     7    33 1   
    21     8     9 ar  
    22     8    13 ar  
    23     8    57 1   
    24     9    10 ar  
    25     9    44 1   
    26    10    11 ar  
    27    10    45 1   
    28    11    12 ar  
    29    11    42 1   
    30    12    13 ar  
    31    12    14 1   
    32    13    46 1   
    33    14    22 1   
    34    14    34 1   
    35    14    47 1   
    36    15    34 1   
    37    15    40 2   
    38    16    48 1   
    39    17    49 1   
    40    18    35 1   
    41    18    41 2   
    42    19    20 ar  
    43    19    30 1   
    44    20    50 1   
    45    21    51 1   
    46    23    24 1   
    47    23    28 2   
    48    24    25 2   
    49    24    52 1   
    50    25    26 1   
    51    25    53 1   
    52    26    36 2   
    53    26    38 1   
    54    27    36 1   
    55    27    37 2   
    56    27    54 1   
    57    28    29 1   
    58    28    38 1   
    59    29    39 3   
    60    34    55 1   
    61    35    56 1   
    62    37    38 1   
@<TRIPOS>SUBSTRUCTURE
     1 XUZ         1 TEMP              0 ****  ****    0 ROOT
