@<TRIPOS>MOLECULE
XUZ
   57    62     1     0     0
SMALL
abcg2


@<TRIPOS>ATOM
      1 C13         17.0680   -17.3310   -32.6330 ca         1 XUZ      -0.150600
      2 C15         15.6380   -17.4600   -34.5270 ca         1 XUZ      -0.044000
      3 C17         15.5900   -15.4970   -33.0960 ca         1 XUZ      -0.016000
      4 C21         14.4780   -12.3740   -31.3880 ca         1 XUZ      -0.132600
      5 C22         15.3640   -11.4740   -31.9670 ca         1 XUZ      -0.103000
      6 C26         13.5290   -10.6040   -30.0780 ca         1 XUZ      -0.181300
      7 C28         12.5400   -10.0760   -29.0840 c3         1 XUZ       0.361300
      8 C02         19.1810   -12.6710   -32.4040 ca         1 XUZ       0.167000
      9 C03         18.9570   -11.6640   -31.4830 ca         1 XUZ      -0.136000
     10 C04         18.1610   -11.9420   -30.3890 ca         1 XUZ      -0.085000
     11 C05         17.6060   -13.2070   -30.2310 ca         1 XUZ       0.105000
     12 C07         17.8220   -14.2130   -31.1680 ca         1 XUZ      -0.066300
     13 C08         18.6320   -13.9260   -32.2640 ca         1 XUZ      -0.128000
     14 C09         17.2270   -15.5990   -31.0410 c5         1 XUZ       0.203300
     15 C11         18.1480   -17.6820   -31.6760 c          1 XUZ       0.582600
     16 C14         16.6280   -18.0360   -33.7360 ca         1 XUZ      -0.030000
     17 C16         15.1400   -16.1930   -34.2100 ca         1 XUZ      -0.089000
     18 C19         14.5510   -13.8380   -31.6710 c          1 XUZ       0.618700
     19 C23         15.3120   -10.1480   -31.5800 ca         1 XUZ       0.159000
     20 C25         14.4070    -9.6880   -30.6510 ca         1 XUZ      -0.086000
     21 C27         13.5670   -11.9400   -30.4280 ca         1 XUZ      -0.020000
     22 C32         16.5530   -16.0950   -32.2930 ca         1 XUZ      -0.070300
     23 C33         15.1260   -18.2030   -35.6930 cc         1 XUZ      -0.030000
     24 C34         16.0280   -18.7350   -36.6530 cc         1 XUZ      -0.090000
     25 C35         15.5900   -19.4420   -37.7330 cd         1 XUZ      -0.063000
     26 C36         14.2090   -19.6430   -37.8950 cd         1 XUZ      -0.068000
     27 C38         12.2350   -20.1130   -38.3740 cc         1 XUZ       0.534200
     28 C41         13.7820   -18.4180   -35.8680 cd         1 XUZ       0.039000
     29 C42         12.7800   -17.9970   -34.9520 ch         1 XUZ       0.318000
     30 F24         16.1810    -9.2870   -32.1170 f          1 XUZ      -0.167000
     31 F29         13.1520    -9.5200   -28.0340 f          1 XUZ      -0.107000
     32 F30         11.7930    -9.1180   -29.6450 f          1 XUZ      -0.107000
     33 F31         11.7180   -11.0110   -28.6070 f          1 XUZ      -0.107000
     34 N10         18.2270   -16.6280   -30.8310 ns         1 XUZ      -0.512900
     35 N18         15.1460   -14.1880   -32.8390 ns         1 XUZ      -0.169000
     36 N37         13.4900   -20.2790   -38.8080 nc         1 XUZ      -0.381300
     37 N39         12.0980   -19.4120   -37.2620 nd         1 XUZ      -0.580100
     38 N40         13.3600   -19.1190   -36.9580 na         1 XUZ       0.302400
     39 N43         11.9780   -17.6630   -34.1970 n1         1 XUZ      -0.387000
     40 O12         18.8130   -18.6980   -31.6520 o          1 XUZ      -0.526000
     41 O20         14.1680   -14.6600   -30.8600 o          1 XUZ      -0.555100
     42 CL06        16.6190   -13.4720   -28.8310 cl         1 XUZ      -0.175000
     43 H221        16.1160   -11.7860   -32.6800 ha         1 XUZ       0.138000
     44 H031        19.3920   -10.6820   -31.6160 ha         1 XUZ       0.144000
     45 H041        17.9660   -11.1720   -29.6550 ha         1 XUZ       0.139000
     46 H081        18.8330   -14.6850   -33.0110 ha         1 XUZ       0.144000
     47 H091        16.5150   -15.6150   -30.2130 h1         1 XUZ       0.106700
     48 H141        17.0380   -19.0110   -33.9710 ha         1 XUZ       0.145000
     49 H161        14.4050   -15.7240   -34.8530 ha         1 XUZ       0.130000
     50 H251        14.4030    -8.6400   -30.3760 ha         1 XUZ       0.152000
     51 H271        12.9020   -12.6570   -29.9700 ha         1 XUZ       0.161000
     52 H341        17.0860   -18.5580   -36.5200 ha         1 XUZ       0.139000
     53 H351        16.2760   -19.8450   -38.4650 ha         1 XUZ       0.156000
     54 H381        11.3730   -20.5080   -38.8900 h5         1 XUZ       0.078800
     55 H101        18.8270   -16.6240   -30.0190 hn         1 XUZ       0.341500
     56 H181        15.2180   -13.5180   -33.5900 hn         1 XUZ       0.167000
     57 F01         19.9540   -12.4150   -33.4660 f          1 XUZ      -0.168000
@<TRIPOS>BOND
     1     1    15 1   
     2     1    16 ar  
     3     1    22 ar  
     4     2    16 ar  
     5     2    17 ar  
     6     2    23 1   
     7     3    17 ar  
     8     3    22 ar  
     9     3    35 1   
    10     4     5 ar  
    11     4    18 1   
    12     4    21 ar  
    13     5    19 ar  
    14     5    43 1   
    15     6     7 1   
    16     6    20 ar  
    17     6    21 ar  
    18     7    31 1   
    19     7    32 1   
    20     7    33 1   
    21     8     9 ar  
    22     8    13 ar  
    23     8    57 1   
    24     9    10 ar  
    25     9    44 1   
    26    10    11 ar  
    27    10    45 1   
    28    11    12 ar  
    29    11    42 1   
    30    12    13 ar  
    31    12    14 1   
    32    13    46 1   
    33    14    22 1   
    34    14    34 1   
    35    14    47 1   
    36    15    34 1   
    37    15    40 2   
    38    16    48 1   
    39    17    49 1   
    40    18    35 1   
    41    18    41 2   
    42    19    20 ar  
    43    19    30 1   
    44    20    50 1   
    45    21    51 1   
    46    23    24 1   
    47    23    28 2   
    48    24    25 2   
    49    24    52 1   
    50    25    26 1   
    51    25    53 1   
    52    26    36 2   
    53    26    38 1   
    54    27    36 1   
    55    27    37 2   
    56    27    54 1   
    57    28    29 1   
    58    28    38 1   
    59    29    39 3   
    60    34    55 1   
    61    35    56 1   
    62    37    38 1   
@<TRIPOS>SUBSTRUCTURE
     1 XUZ         1 TEMP              0 ****  ****    0 ROOT
