@<TRIPOS>MOLECULE
XV0
   46    49     1     0     0
SMALL
abcg2


@<TRIPOS>ATOM
      1 N14         24.2130   -14.6600    77.3370 nb         1 XV0      -0.642000
      2 C13         23.3450   -14.0580    76.5200 ca         1 XV0       0.313900
      3 C18         17.7010   -18.6110    80.4470 ca         1 XV0       0.339000
      4 C16         19.9670   -14.9760    77.9110 cp         1 XV0      -0.055000
      5 C15         23.7220   -15.3850    78.3410 ca         1 XV0       0.323900
      6 C19         18.4290   -18.5920    79.2490 ca         1 XV0      -0.155000
      7 C20         17.7670   -18.5120    78.0400 ca         1 XV0      -0.038500
      8 C21         16.3700   -18.4510    77.9970 ca         1 XV0      -0.053000
      9 C22         15.6390   -18.4880    79.1900 ca         1 XV0      -0.038500
     10 C23         16.2990   -18.5690    80.3980 ca         1 XV0      -0.155000
     11 C24         19.1510   -15.2520    76.8070 ca         1 XV0      -0.097500
     12 C11         21.4360   -14.8910    77.7350 cp         1 XV0      -0.036000
     13 C12         21.9710   -14.1530    76.6800 ca         1 XV0      -0.136000
     14 C27         17.9790   -14.7910    79.2820 ca         1 XV0      -0.110000
     15 C1          21.0520   -18.3730    83.8190 ca         1 XV0       0.147900
     16 N2          19.8440   -18.7070    83.3840 nb         1 XV0      -0.219000
     17 C3          19.5490   -18.3730    82.1130 ca         1 XV0       0.383900
     18 N4          20.3640   -17.7250    81.2830 nb         1 XV0      -0.244000
     19 C5          21.5700   -17.3950    81.7450 ca         1 XV0       0.098500
     20 C6          21.9840   -17.7070    83.0270 ca         1 XV0      -0.207000
     21 C7          22.4690   -16.6120    80.8160 c          1 XV0       0.505600
     22 O9          23.5910   -16.2610    81.1580 o          1 XV0      -0.569100
     23 C10         22.3540   -15.5310    78.5880 ca         1 XV0      -0.071000
     24 C25         17.7710   -15.2960    76.9410 ca         1 XV0      -0.110000
     25 C26         17.1800   -15.0690    78.1800 ca         1 XV0      -0.098000
     26 C28         19.3620   -14.7430    79.1510 ca         1 XV0      -0.097500
     27 C29         15.7000   -18.3230    76.7490 cg         1 XV0       0.329000
     28 N30         15.1590   -18.2090    75.7350 n1         1 XV0      -0.458000
     29 H35         23.7620   -13.4740    75.7080 h4         1 XV0       0.024100
     30 H36         24.4340   -15.8840    78.9830 h4         1 XV0       0.047100
     31 H38         19.5040   -18.6440    79.2660 ha         1 XV0       0.131000
     32 H39         18.3340   -18.4890    77.1200 ha         1 XV0       0.128000
     33 H40         14.5590   -18.4420    79.1650 ha         1 XV0       0.128000
     34 H41         15.7360   -18.5910    81.3220 ha         1 XV0       0.131000
     35 H42         19.6060   -15.4440    75.8440 ha         1 XV0       0.118000
     36 H34         21.3120   -13.6340    75.9970 ha         1 XV0       0.127000
     37 H45         17.5280   -14.6090    80.2500 ha         1 XV0       0.118500
     38 H31         21.2880   -18.6430    84.8430 h4         1 XV0       0.035100
     39 H32         22.9630   -17.4380    83.3920 ha         1 XV0       0.164000
     40 H33         20.9220   -16.6670    79.5640 hn         1 XV0       0.190000
     41 H37         17.6920   -19.0300    82.4530 hn         1 XV0       0.518000
     42 H43         17.1560   -15.5270    76.0810 ha         1 XV0       0.118500
     43 H44         16.1040   -15.1200    78.2860 ha         1 XV0       0.117000
     44 H46         19.9700   -14.5040    80.0130 ha         1 XV0       0.118000
     45 N8          21.8790   -16.3400    79.6280 ns         1 XV0      -0.129000
     46 N17         18.2910   -18.7190    81.7020 nu         1 XV0      -0.933900
@<TRIPOS>BOND
     1     1     2 ar  
     2     1     5 ar  
     3     2    13 ar  
     4     2    29 1   
     5     3     6 ar  
     6     3    10 ar  
     7     3    46 1   
     8     4    11 ar  
     9     4    12 1   
    10     4    26 ar  
    11     5    23 ar  
    12     5    30 1   
    13     6     7 ar  
    14     6    31 1   
    15     7     8 ar  
    16     7    32 1   
    17     8     9 ar  
    18     8    27 1   
    19     9    10 ar  
    20     9    33 1   
    21    10    34 1   
    22    11    24 ar  
    23    11    35 1   
    24    12    13 ar  
    25    12    23 ar  
    26    13    36 1   
    27    14    25 ar  
    28    14    26 ar  
    29    14    37 1   
    30    15    16 ar  
    31    15    20 ar  
    32    15    38 1   
    33    16    17 ar  
    34    17    18 ar  
    35    17    46 1   
    36    18    19 ar  
    37    19    20 ar  
    38    19    21 1   
    39    20    39 1   
    40    21    22 2   
    41    21    45 1   
    42    23    45 1   
    43    24    25 ar  
    44    24    42 1   
    45    25    43 1   
    46    26    44 1   
    47    27    28 3   
    48    40    45 1   
    49    41    46 1   
@<TRIPOS>SUBSTRUCTURE
     1 XV0         1 TEMP              0 ****  ****    0 ROOT
