@<TRIPOS>MOLECULE
XV0
   46    49     1     0     0
SMALL
No Charge or Current Charge


@<TRIPOS>ATOM
      1 N14         24.3140   -14.4700    77.3500 nb         1 XV0      -0.642000
      2 C13         23.4260   -13.9260    76.4890 ca         1 XV0       0.313900
      3 C18         17.6240   -18.6060    80.4800 ca         1 XV0       0.339000
      4 C16         20.0180   -14.9580    77.8610 cp         1 XV0      -0.055000
      5 C15         23.8250   -15.1860    78.3900 ca         1 XV0       0.323900
      6 C19         18.3160   -18.7080    79.2590 ca         1 XV0      -0.155000
      7 C20         17.6250   -18.6290    78.0370 ca         1 XV0      -0.038500
      8 C21         16.2290   -18.4530    78.0270 ca         1 XV0      -0.053000
      9 C22         15.5310   -18.3610    79.2460 ca         1 XV0      -0.038500
     10 C23         16.2290   -18.4450    80.4650 ca         1 XV0      -0.155000
     11 C24         19.2190   -15.3210    76.7500 ca         1 XV0      -0.097500
     12 C11         21.5020   -14.8110    77.7110 cp         1 XV0      -0.036000
     13 C12         22.0370   -14.0740    76.6290 ca         1 XV0      -0.136000
     14 C27         17.9700   -14.8370    79.2160 ca         1 XV0      -0.110000
     15 C1          21.1000   -18.5600    83.8360 ca         1 XV0       0.147900
     16 N2          19.8660   -18.8540    83.3830 nb         1 XV0      -0.219000
     17 C3          19.5600   -18.4130    82.1510 ca         1 XV0       0.383900
     18 N4          20.3520   -17.6890    81.3400 nb         1 XV0      -0.244000
     19 C5          21.5950   -17.3840    81.7850 ca         1 XV0       0.098500
     20 C6          22.0110   -17.8210    83.0620 ca         1 XV0      -0.207000
     21 C7          22.5080   -16.5620    80.8910 c          1 XV0       0.505600
     22 O9          23.6500   -16.2570    81.2220 o          1 XV0      -0.569100
     23 C10         22.4410   -15.3850    78.6120 ca         1 XV0      -0.071000
     24 C25         17.8230   -15.4410    76.8670 ca         1 XV0      -0.110000
     25 C26         17.1980   -15.2020    78.1020 ca         1 XV0      -0.098000
     26 C28         19.3640   -14.7070    79.0950 ca         1 XV0      -0.097500
     27 C29         15.5210   -18.3670    76.7800 cg         1 XV0       0.329000
     28 N30         14.9490   -18.2870    75.7650 n1         1 XV0      -0.458000
     29 H35         23.8410   -13.3540    75.6600 h4         1 XV0       0.024100
     30 H36         24.5760   -15.6290    79.0420 h4         1 XV0       0.047100
     31 H38         19.3890   -18.8700    79.2450 ha         1 XV0       0.131000
     32 H39         18.1760   -18.7070    77.1020 ha         1 XV0       0.128000
     33 H40         14.4510   -18.2280    79.2520 ha         1 XV0       0.128000
     34 H41         15.6800   -18.3750    81.3990 ha         1 XV0       0.131000
     35 H42         19.6890   -15.5150    75.7880 ha         1 XV0       0.118000
     36 H34         21.3790   -13.6050    75.9040 ha         1 XV0       0.127000
     37 H45         17.4870   -14.6450    80.1720 ha         1 XV0       0.118500
     38 H31         21.3590   -18.9180    84.8320 h4         1 XV0       0.035100
     39 H32         23.0020   -17.5890    83.4450 ha         1 XV0       0.164000
     40 H33         20.9780   -16.4680    79.5650 hn         1 XV0       0.190000
     41 H37         17.6670   -19.0060    82.4750 hn         1 XV0       0.518000
     42 H43         17.2270   -15.7210    76.0010 ha         1 XV0       0.118500
     43 H44         16.1190   -15.2960    78.1940 ha         1 XV0       0.117000
     44 H46         19.9400   -14.3930    79.9620 ha         1 XV0       0.118000
     45 N8          21.9380   -16.1700    79.6860 ns         1 XV0      -0.129000
     46 N17         18.2770   -18.7080    81.7130 nu         1 XV0      -0.933900
@<TRIPOS>BOND
     1     1     2 ar  
     2     1     5 ar  
     3     2    13 ar  
     4     2    29 1   
     5     3     6 ar  
     6     3    10 ar  
     7     3    46 1   
     8     4    11 ar  
     9     4    12 1   
    10     4    26 ar  
    11     5    23 ar  
    12     5    30 1   
    13     6     7 ar  
    14     6    31 1   
    15     7     8 ar  
    16     7    32 1   
    17     8     9 ar  
    18     8    27 1   
    19     9    10 ar  
    20     9    33 1   
    21    10    34 1   
    22    11    24 ar  
    23    11    35 1   
    24    12    13 ar  
    25    12    23 ar  
    26    13    36 1   
    27    14    25 ar  
    28    14    26 ar  
    29    14    37 1   
    30    15    16 ar  
    31    15    20 ar  
    32    15    38 1   
    33    16    17 ar  
    34    17    18 ar  
    35    17    46 1   
    36    18    19 ar  
    37    19    20 ar  
    38    19    21 1   
    39    20    39 1   
    40    21    22 2   
    41    21    45 1   
    42    23    45 1   
    43    24    25 ar  
    44    24    42 1   
    45    25    43 1   
    46    26    44 1   
    47    27    28 3   
    48    40    45 1   
    49    41    46 1   
@<TRIPOS>SUBSTRUCTURE
     1 XV0         1 TEMP              0 ****  ****    0 ROOT
