@<TRIPOS>MOLECULE
XV1
   31    33     1     0     0
SMALL
No Charge or Current Charge


@<TRIPOS>ATOM
      1 CAA          0.0180    -0.4700     0.8520 ca         1 XV1      -0.132300
      2 CAB         -1.3670    -0.3280     1.4890 c3         1 XV1       0.034200
      3 CAC          1.0310     0.5050     1.0170 ca         1 XV1       0.184100
      4 CAD         -2.4790    -0.3490     0.4420 ca         1 XV1      -0.118300
      5 CAE          2.3040     0.3530     0.4120 ca         1 XV1       0.191000
      6 CAF          0.2940    -1.6130     0.0760 ca         1 XV1      -0.054000
      7 NAG          3.2570     1.3110     0.5890 nb         1 XV1      -0.689000
      8 CAH         -3.2980    -1.4890     0.3020 ca         1 XV1      -0.088000
      9 CAI          2.5490    -0.8060    -0.3670 ca         1 XV1      -0.039000
     10 CAJ          1.5480    -1.7800    -0.5310 ca         1 XV1      -0.141000
     11 OAK          0.8170     1.6270     1.7710 oh         1 XV1      -0.523100
     12 CAL         -2.7020     0.7610    -0.4000 ca         1 XV1       0.180000
     13 CAM          4.4650     1.1410    -0.0010 ca         1 XV1       0.352900
     14 CAN         -4.3190    -1.5160    -0.6650 ca         1 XV1      -0.128000
     15 CAO          3.8060    -0.9740    -0.9760 ca         1 XV1      -0.063000
     16 CAP         -3.7220     0.7330    -1.3650 ca         1 XV1      -0.153000
     17 CAQ          4.7770     0.0200    -0.7860 ca         1 XV1      -0.159000
     18 CAR         -4.5320    -0.4060    -1.4990 ca         1 XV1      -0.086000
     19 FAS         -1.9340     1.8690    -0.2890 f          1 XV1      -0.173000
     20 HAB         -1.5130    -1.1430     2.2100 hc         1 XV1       0.064700
     21 HABA        -1.4520     0.5890     2.0840 hc         1 XV1       0.064700
     22 HAF         -0.4690    -2.3770    -0.0610 ha         1 XV1       0.116000
     23 HAH         -3.1430    -2.3570     0.9390 ha         1 XV1       0.113000
     24 HAJ          1.7400    -2.6690    -1.1280 ha         1 XV1       0.119000
     25 HOAK         1.6660     2.1250     1.7170 ho         1 XV1       0.497000
     26 HAM          5.2010     1.9270     0.1630 h4         1 XV1       0.020100
     27 HAN         -4.9450    -2.4000    -0.7670 ha         1 XV1       0.116000
     28 HAO          4.0240    -1.8520    -1.5800 ha         1 XV1       0.121000
     29 HAP         -3.8820     1.5960    -2.0070 ha         1 XV1       0.131000
     30 HAQ          5.7610    -0.0700    -1.2380 ha         1 XV1       0.125000
     31 HAR         -5.3230    -0.4300    -2.2460 ha         1 XV1       0.116000
@<TRIPOS>BOND
     1     1     2 1   
     2     1     3 ar  
     3     1     6 ar  
     4     2     4 1   
     5     2    20 1   
     6     2    21 1   
     7     3     5 ar  
     8     3    11 1   
     9     4     8 ar  
    10     4    12 ar  
    11     5     7 ar  
    12     5     9 ar  
    13     6    10 ar  
    14     6    22 1   
    15     7    13 ar  
    16     8    14 ar  
    17     8    23 1   
    18     9    10 ar  
    19     9    15 ar  
    20    10    24 1   
    21    11    25 1   
    22    12    16 ar  
    23    12    19 1   
    24    13    17 ar  
    25    13    26 1   
    26    14    18 ar  
    27    14    27 1   
    28    15    17 ar  
    29    15    28 1   
    30    16    18 ar  
    31    16    29 1   
    32    17    30 1   
    33    18    31 1   
@<TRIPOS>SUBSTRUCTURE
     1 XV1         1 TEMP              0 ****  ****    0 ROOT
