@<TRIPOS>MOLECULE
XV1
   31    33     1     0     0
SMALL
abcg2


@<TRIPOS>ATOM
      1 CAA          0.0210    -0.4880     0.8480 ca         1 XV1      -0.132300
      2 CAB         -1.3400    -0.3670     1.4860 c3         1 XV1       0.034200
      3 CAC          0.9960     0.4700     1.0020 ca         1 XV1       0.184100
      4 CAD         -2.4470    -0.3770     0.4650 ca         1 XV1      -0.118300
      5 CAE          2.2650     0.3070     0.3770 ca         1 XV1       0.191000
      6 CAF          0.3130    -1.6250     0.0570 ca         1 XV1      -0.054000
      7 NAG          3.1670     1.2900     0.5800 nb         1 XV1      -0.689000
      8 CAH         -3.3520    -1.4290     0.3670 ca         1 XV1      -0.088000
      9 CAI          2.5300    -0.8360    -0.4070 ca         1 XV1      -0.039000
     10 CAJ          1.5210    -1.8110    -0.5560 ca         1 XV1      -0.141000
     11 OAK          0.7920     1.5670     1.7420 oh         1 XV1      -0.523100
     12 CAL         -2.5940     0.6640    -0.4410 ca         1 XV1       0.180000
     13 CAM          4.3430     1.1810     0.0220 ca         1 XV1       0.352900
     14 CAN         -4.3560    -1.4350    -0.5930 ca         1 XV1      -0.128000
     15 CAO          3.8110    -0.9200    -0.9940 ca         1 XV1      -0.063000
     16 CAP         -3.5810     0.6910    -1.4060 ca         1 XV1      -0.153000
     17 CAQ          4.7160     0.0840    -0.7820 ca         1 XV1      -0.159000
     18 CAR         -4.4700    -0.3740    -1.4790 ca         1 XV1      -0.086000
     19 FAS         -1.7340     1.6940    -0.3710 f          1 XV1      -0.173000
     20 HAB         -1.4930    -1.2070     2.1670 hc         1 XV1       0.064700
     21 HABA        -1.4010     0.5330     2.0980 hc         1 XV1       0.064700
     22 HAF         -0.4600    -2.3740    -0.0610 ha         1 XV1       0.116000
     23 HAH         -3.2650    -2.2580     1.0590 ha         1 XV1       0.113000
     24 HAJ          1.7110    -2.6940    -1.1530 ha         1 XV1       0.119000
     25 HOAK         1.6130     2.0870     1.7150 ho         1 XV1       0.497000
     26 HAM          5.0510     1.9820     0.2020 h4         1 XV1       0.020100
     27 HAN         -5.0460    -2.2670    -0.6470 ha         1 XV1       0.116000
     28 HAO          4.0650    -1.7770    -1.6050 ha         1 XV1       0.121000
     29 HAP         -3.6530     1.5300    -2.0860 ha         1 XV1       0.131000
     30 HAQ          5.7050     0.0520    -1.2170 ha         1 XV1       0.125000
     31 HAR         -5.2490    -0.3680    -2.2300 ha         1 XV1       0.116000
@<TRIPOS>BOND
     1     1     2 1   
     2     1     3 ar  
     3     1     6 ar  
     4     2     4 1   
     5     2    20 1   
     6     2    21 1   
     7     3     5 ar  
     8     3    11 1   
     9     4     8 ar  
    10     4    12 ar  
    11     5     7 ar  
    12     5     9 ar  
    13     6    10 ar  
    14     6    22 1   
    15     7    13 ar  
    16     8    14 ar  
    17     8    23 1   
    18     9    10 ar  
    19     9    15 ar  
    20    10    24 1   
    21    11    25 1   
    22    12    16 ar  
    23    12    19 1   
    24    13    17 ar  
    25    13    26 1   
    26    14    18 ar  
    27    14    27 1   
    28    15    17 ar  
    29    15    28 1   
    30    16    18 ar  
    31    16    29 1   
    32    17    30 1   
    33    18    31 1   
@<TRIPOS>SUBSTRUCTURE
     1 XV1         1 TEMP              0 ****  ****    0 ROOT
