@<TRIPOS>MOLECULE
XV4
   64    66     1     0     0
SMALL
No Charge or Current Charge


@<TRIPOS>ATOM
      1 C10         16.9700    13.0390    -8.9950 c          1 XV4       0.564000
      2 C15         10.4030    14.4720    -6.5200 c3         1 XV4      -0.085400
      3 C17          7.9960    14.3420    -7.3640 c3         1 XV4      -0.091100
      4 C20         10.8220    12.2940    -3.8540 c          1 XV4       0.638300
      5 C21         10.4380    12.2690    -2.4170 cc         1 XV4      -0.158300
      6 C22         10.3930    13.3530    -1.5380 cd         1 XV4      -0.161200
      7 C24          9.7740    13.6260     0.9690 ca         1 XV4       0.201100
      8 C26          9.8190    15.7610     2.1960 c3         1 XV4       0.146900
      9 C28          9.1280    11.4860     1.9920 ca         1 XV4      -0.041000
     10 C02         12.8150    14.7910    -5.7120 c          1 XV4       0.586100
     11 C04         14.6690    15.7250    -7.1480 c3         1 XV4       0.104700
     12 C05         15.5760    15.0830    -8.2310 c3         1 XV4      -0.071400
     13 C06         16.0130    13.6170    -7.9430 c5         1 XV4      -0.155700
     14 C07         16.8000    13.4110    -6.6180 c5         1 XV4      -0.089400
     15 C08         17.5150    12.0600    -6.8920 c5         1 XV4       0.100000
     16 C12         14.2570    17.1870    -7.4780 c3         1 XV4       0.150600
     17 C14         11.5810    13.8440    -5.7210 c3         1 XV4       0.034700
     18 C18          9.5350    12.3470    -7.7020 c3         1 XV4      -0.091100
     19 C23          9.9700    12.9230    -0.2280 ca         1 XV4      -0.144800
     20 C27          9.3440    12.8830     2.0960 ca         1 XV4      -0.245000
     21 C29          9.3380    10.8180     0.7660 ca         1 XV4      -0.169000
     22 C30          9.7620    11.5780    -0.3300 ca         1 XV4      -0.003200
     23 N03         13.4810    14.8920    -6.9160 ns         1 XV4      -0.503900
     24 N09         17.8100    12.1980    -8.3160 ns         1 XV4      -0.513900
     25 N19         11.1740    13.5360    -4.3310 ns         1 XV4      -0.469900
     26 N31         10.0350    11.1670    -1.6250 na         1 XV4      -0.184700
     27 O01         13.1840    15.4030    -4.7170 o          1 XV4      -0.597100
     28 O11         17.1570    13.3810   -10.1510 o          1 XV4      -0.563000
     29 O13         15.4060    18.0440    -7.5640 oh         1 XV4      -0.656000
     30 O25         10.0030    14.9860     0.9990 os         1 XV4      -0.335100
     31 O32         10.8320    11.2930    -4.5570 o          1 XV4      -0.629100
     32 H152        10.7730    14.8300    -7.4890 hc         1 XV4       0.054700
     33 H151        10.0630    15.3640    -5.9800 hc         1 XV4       0.054700
     34 H172         7.7040    15.1530    -6.6860 hc         1 XV4       0.036200
     35 H173         8.2580    14.7820    -8.3340 hc         1 XV4       0.036200
     36 H171         7.1240    13.6930    -7.5060 hc         1 XV4       0.036200
     37 H221        10.6370    14.3830    -1.7860 ha         1 XV4       0.208000
     38 H262        10.0540    16.8160     2.0060 h1         1 XV4       0.041700
     39 H263         8.7800    15.7000     2.5440 h1         1 XV4       0.041700
     40 H261        10.4800    15.4040     2.9960 h1         1 XV4       0.041700
     41 H281         8.7980    10.9230     2.8630 ha         1 XV4       0.110000
     42 H041        15.2450    15.7570    -6.2130 h1         1 XV4       0.094700
     43 H051        15.0510    15.1230    -9.1940 hc         1 XV4       0.065200
     44 H052        16.4720    15.7050    -8.3510 hc         1 XV4       0.065200
     45 H061        15.1350    12.9620    -7.9250 hc         1 XV4       0.085700
     46 H071        17.5340    14.2110    -6.4610 hc         1 XV4       0.065200
     47 H072        16.1550    13.3760    -5.7320 hc         1 XV4       0.065200
     48 H082        18.4180    11.9400    -6.2780 h1         1 XV4       0.043700
     49 H081        16.8490    11.2070    -6.7040 h1         1 XV4       0.043700
     50 H121        13.5800    17.5510    -6.6940 h1         1 XV4       0.022200
     51 H141        11.9100    12.9210    -6.2150 h1         1 XV4       0.079700
     52 H161         8.8500    13.1350    -5.8200 hc         1 XV4       0.048700
     53 H181         8.6520    11.7190    -7.8710 hc         1 XV4       0.036200
     54 H182         9.8950    12.6980    -8.6760 hc         1 XV4       0.036200
     55 H183        10.3090    11.7130    -7.2580 hc         1 XV4       0.036200
     56 H271         9.1740    13.3660     3.0540 ha         1 XV4       0.116000
     57 H291         9.1740     9.7470     0.6790 ha         1 XV4       0.120000
     58 H031        13.1100    14.3560    -7.6920 hn         1 XV4       0.313500
     59 H091        18.5810    11.7670    -8.8120 hn         1 XV4       0.323500
     60 H191        11.1830    14.2910    -3.6580 hn         1 XV4       0.329500
     61 H311         9.9560    10.2110    -1.9580 hn         1 XV4       0.370000
     62 H1          13.7020    17.1990    -8.4250 h1         1 XV4       0.022200
     63 H2          15.0750    18.9480    -7.7660 ho         1 XV4       0.447000
     64 C16          9.1840    13.5420    -6.7820 c3         1 XV4      -0.058700
@<TRIPOS>BOND
     1     1    13 1   
     2     1    24 1   
     3     1    28 2   
     4     2    17 1   
     5     2    32 1   
     6     2    33 1   
     7     2    64 1   
     8     3    34 1   
     9     3    35 1   
    10     3    36 1   
    11     3    64 1   
    12     4     5 1   
    13     4    25 1   
    14     4    31 2   
    15     5     6 2   
    16     5    26 1   
    17     6    19 1   
    18     6    37 1   
    19     7    19 ar  
    20     7    20 ar  
    21     7    30 1   
    22     8    30 1   
    23     8    38 1   
    24     8    39 1   
    25     8    40 1   
    26     9    20 ar  
    27     9    21 ar  
    28     9    41 1   
    29    10    17 1   
    30    10    23 1   
    31    10    27 2   
    32    11    12 1   
    33    11    16 1   
    34    11    23 1   
    35    11    42 1   
    36    12    13 1   
    37    12    43 1   
    38    12    44 1   
    39    13    14 1   
    40    13    45 1   
    41    14    15 1   
    42    14    46 1   
    43    14    47 1   
    44    15    24 1   
    45    15    48 1   
    46    15    49 1   
    47    16    29 1   
    48    16    50 1   
    49    16    62 1   
    50    17    25 1   
    51    17    51 1   
    52    18    53 1   
    53    18    54 1   
    54    18    55 1   
    55    18    64 1   
    56    19    22 ar  
    57    20    56 1   
    58    21    22 ar  
    59    21    57 1   
    60    22    26 1   
    61    23    58 1   
    62    24    59 1   
    63    25    60 1   
    64    26    61 1   
    65    29    63 1   
    66    52    64 1   
@<TRIPOS>SUBSTRUCTURE
     1 XV4         1 TEMP              0 ****  ****    0 ROOT
