@<TRIPOS>MOLECULE
XV4
   64    66     1     0     0
SMALL
bcc


@<TRIPOS>ATOM
      1 C10         16.3930    11.8850    -7.4260 c          1 XV4       0.706500
      2 C15         10.2170    15.4620    -6.6260 c3         1 XV4      -0.085400
      3 C17          7.8690    16.0870    -7.1760 c3         1 XV4      -0.091100
      4 C20         11.6130    13.0530    -4.1720 c          1 XV4       0.705300
      5 C21         11.3040    12.8050    -2.7550 cc         1 XV4      -0.158300
      6 C22         10.4100    13.3840    -1.8890 cd         1 XV4      -0.111200
      7 C24          9.9370    12.8600     0.6120 ca         1 XV4       0.201100
      8 C26          8.3250    13.9930     1.9240 c3         1 XV4       0.123700
      9 C28         11.3370    11.0600     1.4360 ca         1 XV4      -0.059000
     10 C02         12.6460    15.0570    -6.1800 c          1 XV4       0.653100
     11 C04         14.6180    15.3530    -7.6370 c3         1 XV4       0.104700
     12 C05         15.4990    14.1730    -8.0460 c3         1 XV4      -0.071400
     13 C06         15.5310    13.0660    -7.0050 c5         1 XV4      -0.155700
     14 C07         16.1050    13.4530    -5.6420 c5         1 XV4      -0.089400
     15 C08         16.7000    12.1470    -5.1120 c5         1 XV4       0.100000
     16 C12         14.5730    16.4430    -8.7030 c3         1 XV4       0.127400
     17 C14         11.2410    14.4450    -6.1210 c3         1 XV4       0.034700
     18 C18          8.5750    13.6910    -7.4070 c3         1 XV4      -0.091100
     19 C23         10.5640    12.7200    -0.6430 ca         1 XV4      -0.144800
     20 C27         10.3290    12.0250     1.6410 ca         1 XV4      -0.263000
     21 C29         11.9730    10.8970     0.2280 ca         1 XV4      -0.187000
     22 C30         11.5670    11.7450    -0.8100 ca         1 XV4      -0.003200
     23 N03         13.2700    14.9030    -7.3590 ns         1 XV4      -0.570900
     24 N09         17.0370    11.4450    -6.3320 ns         1 XV4      -0.580900
     25 N19         10.9340    14.0460    -4.7730 ns         1 XV4      -0.536900
     26 N31         11.9930    11.8210    -2.0960 na         1 XV4      -0.134400
     27 O01         13.1180    15.6530    -5.2260 o          1 XV4      -0.597100
     28 O11         16.4740    11.4130    -8.5480 o          1 XV4      -0.638500
     29 O13         15.8770    16.9350    -8.8990 oh         1 XV4      -0.593800
     30 O25          8.9940    13.8120     0.6930 os         1 XV4      -0.311900
     31 O32         12.4400    12.3650    -4.7600 o          1 XV4      -0.629100
     32 H152        10.4930    15.7350    -7.6490 hc         1 XV4       0.054700
     33 H151        10.2980    16.3760    -6.0280 hc         1 XV4       0.054700
     34 H172         7.9770    17.0150    -6.6110 hc         1 XV4       0.036200
     35 H173         8.1180    16.3020    -8.2180 hc         1 XV4       0.036200
     36 H171         6.8180    15.7970    -7.1400 hc         1 XV4       0.036200
     37 H221         9.7180    14.1820    -2.1120 ha         1 XV4       0.158000
     38 H262         7.6170    14.8050     1.7760 h1         1 XV4       0.041700
     39 H263         7.7760    13.0960     2.2240 h1         1 XV4       0.041700
     40 H261         9.0140    14.2680     2.7270 h1         1 XV4       0.041700
     41 H281        11.6140    10.4280     2.2690 ha         1 XV4       0.128000
     42 H041        15.0000    15.7950    -6.7150 h1         1 XV4       0.094700
     43 H051        15.1410    13.7700    -8.9980 hc         1 XV4       0.065200
     44 H052        16.5140    14.5370    -8.2220 hc         1 XV4       0.065200
     45 H061        14.5170    12.6660    -6.8710 hc         1 XV4       0.085700
     46 H071        16.8950    14.1960    -5.7740 hc         1 XV4       0.065200
     47 H072        15.3640    13.8710    -4.9640 hc         1 XV4       0.065200
     48 H082        17.5820    12.3070    -4.4930 h1         1 XV4       0.043700
     49 H081        15.9720    11.5850    -4.5190 h1         1 XV4       0.043700
     50 H121        13.8880    17.2300    -8.3660 h1         1 XV4       0.022200
     51 H141        11.2160    13.5610    -6.7640 h1         1 XV4       0.079700
     52 H161         8.4560    14.7990    -5.5840 hc         1 XV4       0.048700
     53 H181         7.5210    13.4160    -7.4510 hc         1 XV4       0.036200
     54 H182         8.9310    13.8040    -8.4340 hc         1 XV4       0.036200
     55 H183         9.1080    12.8520    -6.9580 hc         1 XV4       0.036200
     56 H271         9.8750    12.0920     2.6200 ha         1 XV4       0.134000
     57 H291        12.7450    10.1530     0.0860 ha         1 XV4       0.138000
     58 H031        12.8090    14.3620    -8.0770 hn         1 XV4       0.313500
     59 H091        17.5800    10.5950    -6.3380 hn         1 XV4       0.323500
     60 H191        10.3770    14.6710    -4.2120 hn         1 XV4       0.329500
     61 H311        12.7080    11.2490    -2.5170 hn         1 XV4       0.319700
     62 H1          14.1530    16.0210    -9.6270 h1         1 XV4       0.022200
     63 H2          15.8500    17.5850    -9.6060 ho         1 XV4       0.408000
     64 C16          8.7620    14.9830    -6.6200 c3         1 XV4      -0.058700
@<TRIPOS>BOND
     1     1    13 1   
     2     1    24 1   
     3     1    28 2   
     4     2    17 1   
     5     2    32 1   
     6     2    33 1   
     7     2    64 1   
     8     3    34 1   
     9     3    35 1   
    10     3    36 1   
    11     3    64 1   
    12     4     5 1   
    13     4    25 1   
    14     4    31 2   
    15     5     6 2   
    16     5    26 1   
    17     6    19 1   
    18     6    37 1   
    19     7    19 ar  
    20     7    20 ar  
    21     7    30 1   
    22     8    30 1   
    23     8    38 1   
    24     8    39 1   
    25     8    40 1   
    26     9    20 ar  
    27     9    21 ar  
    28     9    41 1   
    29    10    17 1   
    30    10    23 1   
    31    10    27 2   
    32    11    12 1   
    33    11    16 1   
    34    11    23 1   
    35    11    42 1   
    36    12    13 1   
    37    12    43 1   
    38    12    44 1   
    39    13    14 1   
    40    13    45 1   
    41    14    15 1   
    42    14    46 1   
    43    14    47 1   
    44    15    24 1   
    45    15    48 1   
    46    15    49 1   
    47    16    29 1   
    48    16    50 1   
    49    16    62 1   
    50    17    25 1   
    51    17    51 1   
    52    18    53 1   
    53    18    54 1   
    54    18    55 1   
    55    18    64 1   
    56    19    22 ar  
    57    20    56 1   
    58    21    22 ar  
    59    21    57 1   
    60    22    26 1   
    61    23    58 1   
    62    24    59 1   
    63    25    60 1   
    64    26    61 1   
    65    29    63 1   
    66    52    64 1   
@<TRIPOS>SUBSTRUCTURE
     1 XV4         1 TEMP              0 ****  ****    0 ROOT
