@<TRIPOS>MOLECULE
XV5
   30    32     1     0     0
SMALL
No Charge or Current Charge


@<TRIPOS>ATOM
      1 C7          -7.0750    18.0980     5.6410 c          1 XV5       0.578900
      2 C8          -8.5060    18.3520     5.9400 cc         1 XV5      -0.045100
      3 C9          -8.9250    19.2080     6.9320 cf         1 XV5      -0.080200
      4 O1          -9.3460    17.6100     5.1210 os         1 XV5      -0.192200
      5 C1          -6.1240    16.4990     3.8300 ca         1 XV5       0.000000
      6 O5         -11.2460    21.7490    10.3920 oh         1 XV5      -0.562100
      7 C5          -8.4810    16.8990     4.3110 ca         1 XV5       0.145100
      8 C6          -7.1430    17.1310     4.5540 ca         1 XV5      -0.258600
      9 C4          -8.8780    16.0040     3.3100 ca         1 XV5      -0.138000
     10 O4         -13.6660    21.4750     9.0950 oh         1 XV5      -0.529100
     11 C3          -7.8780    15.3470     2.5590 ca         1 XV5      -0.051000
     12 O3         -11.6130    19.0460     5.5640 oh         1 XV5      -0.514100
     13 C2          -6.5090    15.5940     2.8180 ca         1 XV5      -0.161000
     14 C10        -10.2160    19.7750     7.4240 ca         1 XV5      -0.099800
     15 C11        -10.1610    20.4940     8.6430 ca         1 XV5      -0.103000
     16 C12        -11.3160    21.0620     9.2050 ca         1 XV5       0.002100
     17 C13        -12.5500    20.9220     8.5480 ca         1 XV5       0.178100
     18 C14        -12.6290    20.2310     7.3360 ca         1 XV5      -0.228000
     19 C15        -11.4760    19.6610     6.7690 ca         1 XV5       0.181100
     20 O2          -6.0680    18.5650     6.1590 o          1 XV5      -0.510100
     21 H2          -8.0700    19.6250     7.4660 ha         1 XV5       0.198000
     22 H4          -5.0740    16.6970     4.0390 ha         1 XV5       0.131000
     23 H5         -10.3160    21.7500    10.7120 ho         1 XV5       0.475000
     24 H6          -9.9320    15.8210     3.1180 ha         1 XV5       0.136000
     25 H7         -13.3630    21.9040     9.9270 ho         1 XV5       0.487000
     26 H8          -8.1630    14.6470     1.7760 ha         1 XV5       0.117000
     27 H9         -12.5540    19.0910     5.2990 ho         1 XV5       0.466000
     28 H10         -5.7470    15.0830     2.2340 ha         1 XV5       0.121000
     29 H11         -9.2120    20.6030     9.1630 ha         1 XV5       0.119000
     30 H12        -13.5900    20.1480     6.8370 ha         1 XV5       0.135000
@<TRIPOS>BOND
     1     1     2 1   
     2     1     8 1   
     3     1    20 2   
     4     2     3 2   
     5     2     4 1   
     6     3    14 1   
     7     3    21 1   
     8     4     7 1   
     9     5     8 ar  
    10     5    13 ar  
    11     5    22 1   
    12     6    16 1   
    13     6    23 1   
    14     7     8 ar  
    15     7     9 ar  
    16     9    11 ar  
    17     9    24 1   
    18    10    17 1   
    19    10    25 1   
    20    11    13 ar  
    21    11    26 1   
    22    12    19 1   
    23    12    27 1   
    24    13    28 1   
    25    14    15 ar  
    26    14    19 ar  
    27    15    16 ar  
    28    15    29 1   
    29    16    17 ar  
    30    17    18 ar  
    31    18    19 ar  
    32    18    30 1   
@<TRIPOS>SUBSTRUCTURE
     1 XV5         1 TEMP              0 ****  ****    0 ROOT
