@<TRIPOS>MOLECULE
XV5
   30    32     1     0     0
SMALL
abcg2


@<TRIPOS>ATOM
      1 C7          -7.0270    18.3640     5.4420 c          1 XV5       0.578900
      2 C8          -8.4270    18.6370     5.8620 cc         1 XV5      -0.045100
      3 C9          -8.7970    19.5580     6.7670 cf         1 XV5      -0.080200
      4 O1          -9.2790    17.7400     5.2360 os         1 XV5      -0.192200
      5 C1          -6.2250    16.5060     3.7770 ca         1 XV5       0.000000
      6 O5         -11.4180    21.1960    10.5350 oh         1 XV5      -0.562100
      7 C5          -8.5100    16.9260     4.4470 ca         1 XV5       0.145100
      8 C6          -7.1530    17.2370     4.5180 ca         1 XV5      -0.258600
      9 C4          -9.0000    15.8990     3.6590 ca         1 XV5      -0.138000
     10 O4         -13.6830    21.0640     9.0840 oh         1 XV5      -0.529100
     11 C3          -8.0620    15.1790     2.9240 ca         1 XV5      -0.051000
     12 O3         -11.2740    19.6060     5.2530 oh         1 XV5      -0.514100
     13 C2          -6.6920    15.4730     2.9780 ca         1 XV5      -0.161000
     14 C10        -10.0900    19.9380     7.2940 ca         1 XV5      -0.099800
     15 C11        -10.1300    20.4020     8.6270 ca         1 XV5      -0.103000
     16 C12        -11.3070    20.7650     9.2390 ca         1 XV5       0.002100
     17 C13        -12.5070    20.7060     8.5120 ca         1 XV5       0.178100
     18 C14        -12.4930    20.2970     7.1890 ca         1 XV5      -0.228000
     19 C15        -11.3000    19.9230     6.5730 ca         1 XV5       0.181100
     20 O2          -6.0200    18.9640     5.8030 o          1 XV5      -0.510100
     21 H2          -7.9450    20.0590     7.2170 ha         1 XV5       0.198000
     22 H4          -5.1700    16.7440     3.8300 ha         1 XV5       0.131000
     23 H5         -10.5500    21.2330    10.9570 ho         1 XV5       0.475000
     24 H6         -10.0560    15.6730     3.6170 ha         1 XV5       0.136000
     25 H7         -13.5180    21.3400     9.9980 ho         1 XV5       0.487000
     26 H8          -8.4030    14.3690     2.2920 ha         1 XV5       0.117000
     27 H9         -12.1650    19.6670     4.8830 ho         1 XV5       0.466000
     28 H10         -5.9990    14.8870     2.3900 ha         1 XV5       0.121000
     29 H11         -9.2050    20.4480     9.1910 ha         1 XV5       0.119000
     30 H12        -13.4190    20.2920     6.6280 ha         1 XV5       0.135000
@<TRIPOS>BOND
     1     1     2 1   
     2     1     8 1   
     3     1    20 2   
     4     2     3 2   
     5     2     4 1   
     6     3    14 1   
     7     3    21 1   
     8     4     7 1   
     9     5     8 ar  
    10     5    13 ar  
    11     5    22 1   
    12     6    16 1   
    13     6    23 1   
    14     7     8 ar  
    15     7     9 ar  
    16     9    11 ar  
    17     9    24 1   
    18    10    17 1   
    19    10    25 1   
    20    11    13 ar  
    21    11    26 1   
    22    12    19 1   
    23    12    27 1   
    24    13    28 1   
    25    14    15 ar  
    26    14    19 ar  
    27    15    16 ar  
    28    15    29 1   
    29    16    17 ar  
    30    17    18 ar  
    31    18    19 ar  
    32    18    30 1   
@<TRIPOS>SUBSTRUCTURE
     1 XV5         1 TEMP              0 ****  ****    0 ROOT
