@<TRIPOS>MOLECULE
XV6
   92    98     1     0     0
SMALL
abcg2


@<TRIPOS>ATOM
      1 O1          -7.9520    13.7160    27.9570 o          1 XV6      -0.595000
      2 O4         -11.4770    18.1380    28.9930 oh         1 XV6      -0.668500
      3 O5          -9.9570    19.0300    26.9070 oh         1 XV6      -0.668500
      4 N2          -9.0750    15.3360    29.1020 n          1 XV6      -0.413300
      5 N7          -8.7220    15.5070    26.7790 n          1 XV6      -0.413300
      6 C1          -8.5520    14.7940    27.9470 c          1 XV6       0.602000
      7 C2          -8.6690    14.6590    30.3450 c3         1 XV6       0.143800
      8 C3         -10.3700    16.0380    29.1290 c3         1 XV6       0.105700
      9 C4         -10.2540    17.4860    28.6570 c3         1 XV6       0.151300
     10 C5          -9.9710    17.6250    27.1780 c3         1 XV6       0.151300
     11 C6          -8.6560    16.9770    26.7360 c3         1 XV6       0.105700
     12 C7          -8.3380    14.7900    25.5520 c3         1 XV6       0.143800
     13 C31        -11.5080    15.2340    28.4710 c3         1 XV6      -0.048100
     14 C32        -11.8190    13.9920    29.2650 ca         1 XV6      -0.091800
     15 C33        -11.3690    12.7400    28.8490 ca         1 XV6      -0.109500
     16 C34        -11.5850    11.6090    29.6300 ca         1 XV6      -0.114000
     17 C35        -12.2600    11.7150    30.8420 ca         1 XV6      -0.108500
     18 C36        -12.7260    12.9590    31.2620 ca         1 XV6      -0.114000
     19 C37        -12.5060    14.0850    30.4770 ca         1 XV6      -0.109500
     20 C61         -7.3970    17.5530    27.4100 c3         1 XV6      -0.048100
     21 C62         -6.1550    17.1780    26.6450 ca         1 XV6      -0.091800
     22 C63         -5.3230    16.1470    27.0800 ca         1 XV6      -0.109500
     23 C64         -4.2250    15.7500    26.3230 ca         1 XV6      -0.114000
     24 C65         -3.9400    16.3860    25.1190 ca         1 XV6      -0.108500
     25 C66         -4.7550    17.4260    24.6820 ca         1 XV6      -0.114000
     26 C67         -5.8520    17.8160    25.4400 ca         1 XV6      -0.109500
     27 C20         -8.7710    15.5690    31.5390 ca         1 XV6      -0.110800
     28 C21         -9.7230    15.3210    32.5200 ca         1 XV6      -0.072000
     29 C22         -9.8700    16.1760    33.6140 ca         1 XV6      -0.152100
     30 C23         -9.0370    17.2910    33.7240 ca         1 XV6      -0.045500
     31 C24         -8.0720    17.5370    32.7560 ca         1 XV6      -0.123500
     32 C25         -7.9420    16.6840    31.6660 ca         1 XV6      -0.065500
     33 C26        -10.9230    15.9870    34.6500 c          1 XV6       0.619200
     34 O26        -11.2330    16.8690    35.4450 o          1 XV6      -0.578100
     35 N26        -11.5540    14.7730    34.6730 ns         1 XV6      -0.465900
     36 N27        -13.1530    13.2560    35.4470 nc         1 XV6      -0.714500
     37 C27        -12.6010    14.4370    35.5050 cd         1 XV6       0.537300
     38 C28        -14.1800    13.1590    36.3560 cc         1 XV6       0.302900
     39 S29        -13.2920    15.5170    36.6800 ss         1 XV6       0.050100
     40 C29        -14.4080    14.2660    37.1070 cd         1 XV6      -0.306500
     41 C70         -9.0210    15.3510    24.3330 ca         1 XV6      -0.110800
     42 C71         -8.2740    15.9990    23.3580 ca         1 XV6      -0.072000
     43 C72         -8.8860    16.5590    22.2330 ca         1 XV6      -0.152100
     44 C73        -10.2710    16.4530    22.0920 ca         1 XV6      -0.045500
     45 C74        -11.0230    15.7980    23.0580 ca         1 XV6      -0.123500
     46 C75        -10.4030    15.2520    24.1750 ca         1 XV6      -0.065500
     47 C76         -8.1420    17.3100    21.1820 c          1 XV6       0.619200
     48 O76         -8.7130    17.9100    20.2750 o          1 XV6      -0.578100
     49 N76         -6.7770    17.3190    21.2680 ns         1 XV6      -0.465900
     50 N77         -4.6380    17.9740    20.5950 nc         1 XV6      -0.714500
     51 C77         -5.9310    18.0040    20.4210 cd         1 XV6       0.537300
     52 C78         -4.0050    18.7320    19.6380 cc         1 XV6       0.302900
     53 S79         -6.4710    18.9580    19.0710 ss         1 XV6       0.050100
     54 C79         -4.8170    19.3370    18.7340 cd         1 XV6      -0.306500
     55 HO51       -10.0810    19.1640    25.9590 ho         1 XV6       0.459500
     56 H21         -9.2720    13.7640    30.5140 h1         1 XV6       0.068450
     57 H22         -7.6390    14.3350    30.2110 h1         1 XV6       0.068450
     58 H31        -10.6240    16.1270    30.1820 h1         1 XV6       0.069700
     59 H41         -9.4330    17.9460    29.2180 h1         1 XV6       0.056700
     60 H51        -10.7810    17.1540    26.6130 h1         1 XV6       0.056700
     61 H61         -8.5800    17.2250    25.6790 h1         1 XV6       0.069700
     62 H71         -7.2550    14.8150    25.4100 h1         1 XV6       0.068450
     63 H72         -8.6230    13.7490    25.6890 h1         1 XV6       0.068450
     64 H311       -12.3840    15.8830    28.4300 hc         1 XV6       0.065950
     65 H312       -11.2450    14.9710    27.4480 hc         1 XV6       0.065950
     66 H331       -10.8300    12.6540    27.9130 ha         1 XV6       0.115000
     67 H341       -11.2220    10.6460    29.2940 ha         1 XV6       0.120750
     68 H351       -12.4260    10.8370    31.4530 ha         1 XV6       0.117500
     69 H361       -13.2530    13.0520    32.2030 ha         1 XV6       0.120750
     70 H371       -12.8600    15.0520    30.8170 ha         1 XV6       0.115000
     71 H611        -7.5080    18.6380    27.4320 hc         1 XV6       0.065950
     72 H612        -7.3240    17.2080    28.4400 hc         1 XV6       0.065950
     73 H631        -5.5460    15.6420    28.0120 ha         1 XV6       0.115000
     74 H641        -3.5930    14.9430    26.6730 ha         1 XV6       0.120750
     75 H651        -3.0870    16.0760    24.5270 ha         1 XV6       0.117500
     76 H661        -4.5400    17.9290    23.7470 ha         1 XV6       0.120750
     77 H671        -6.4910    18.6180    25.0880 ha         1 XV6       0.115000
     78 H211       -10.3730    14.4670    32.3830 ha         1 XV6       0.121500
     79 H231        -9.1550    17.9560    34.5670 ha         1 XV6       0.141500
     80 H241        -7.4240    18.3980    32.8500 ha         1 XV6       0.125000
     81 H251        -7.1990    16.8860    30.9050 ha         1 XV6       0.123500
     82 HN26       -11.2590    14.0330    34.0540 hn         1 XV6       0.343000
     83 H281       -14.7350    12.2340    36.4250 h4         1 XV6       0.040600
     84 H291       -15.1490    14.4210    37.8740 h4         1 XV6       0.160500
     85 H711        -7.2090    16.0830    23.5240 ha         1 XV6       0.121500
     86 H731       -10.7470    16.8890    21.2250 ha         1 XV6       0.141500
     87 H741       -12.0960    15.7160    22.9400 ha         1 XV6       0.125000
     88 H751       -10.9920    14.7520    24.9340 ha         1 XV6       0.123500
     89 HN76        -6.3050    16.7970    21.9910 hn         1 XV6       0.343000
     90 H781        -2.9270    18.8040    19.6540 h4         1 XV6       0.040600
     91 H791        -4.5500    19.9730    17.9060 h4         1 XV6       0.160500
     92 HO41       -11.4850    18.9740    28.5060 ho         1 XV6       0.459500
@<TRIPOS>BOND
     1     1     6 2   
     2     2     9 1   
     3     2    92 1   
     4     3    10 1   
     5     3    55 1   
     6     4     6 1   
     7     4     7 1   
     8     4     8 1   
     9     5     6 1   
    10     5    11 1   
    11     5    12 1   
    12     7    27 1   
    13     7    56 1   
    14     7    57 1   
    15     8     9 1   
    16     8    13 1   
    17     8    58 1   
    18     9    10 1   
    19     9    59 1   
    20    10    11 1   
    21    10    60 1   
    22    11    20 1   
    23    11    61 1   
    24    12    41 1   
    25    12    62 1   
    26    12    63 1   
    27    13    14 1   
    28    13    64 1   
    29    13    65 1   
    30    14    15 ar  
    31    14    19 ar  
    32    15    16 ar  
    33    15    66 1   
    34    16    17 ar  
    35    16    67 1   
    36    17    18 ar  
    37    17    68 1   
    38    18    19 ar  
    39    18    69 1   
    40    19    70 1   
    41    20    21 1   
    42    20    71 1   
    43    20    72 1   
    44    21    22 ar  
    45    21    26 ar  
    46    22    23 ar  
    47    22    73 1   
    48    23    24 ar  
    49    23    74 1   
    50    24    25 ar  
    51    24    75 1   
    52    25    26 ar  
    53    25    76 1   
    54    26    77 1   
    55    27    28 ar  
    56    27    32 ar  
    57    28    29 ar  
    58    28    78 1   
    59    29    30 ar  
    60    29    33 1   
    61    30    31 ar  
    62    30    79 1   
    63    31    32 ar  
    64    31    80 1   
    65    32    81 1   
    66    33    34 2   
    67    33    35 1   
    68    35    37 1   
    69    35    82 1   
    70    36    37 2   
    71    36    38 1   
    72    37    39 1   
    73    38    40 2   
    74    38    83 1   
    75    39    40 1   
    76    40    84 1   
    77    41    42 ar  
    78    41    46 ar  
    79    42    43 ar  
    80    42    85 1   
    81    43    44 ar  
    82    43    47 1   
    83    44    45 ar  
    84    44    86 1   
    85    45    46 ar  
    86    45    87 1   
    87    46    88 1   
    88    47    48 2   
    89    47    49 1   
    90    49    51 1   
    91    49    89 1   
    92    50    51 2   
    93    50    52 1   
    94    51    53 1   
    95    52    54 2   
    96    52    90 1   
    97    53    54 1   
    98    54    91 1   
@<TRIPOS>SUBSTRUCTURE
     1 XV6         1 TEMP              0 ****  ****    0 ROOT
