@<TRIPOS>MOLECULE
XV6
   92    98     1     0     0
SMALL
No Charge or Current Charge


@<TRIPOS>ATOM
      1 O1          -7.9390    13.7610    27.9660 o          1 XV6      -0.595000
      2 O4         -11.4680    18.2860    29.0060 oh         1 XV6      -0.668500
      3 O5         -10.0440    19.0850    26.7990 oh         1 XV6      -0.668500
      4 N2          -9.0810    15.3460    29.1540 n          1 XV6      -0.413300
      5 N7          -8.7070    15.5330    26.7420 n          1 XV6      -0.413300
      6 C1          -8.5440    14.8240    27.9550 c          1 XV6       0.602000
      7 C2          -8.6500    14.7350    30.4390 c3         1 XV6       0.143800
      8 C3         -10.3820    16.0840    29.1570 c3         1 XV6       0.105700
      9 C4         -10.2730    17.5550    28.6790 c3         1 XV6       0.151300
     10 C5         -10.0200    17.6850    27.1590 c3         1 XV6       0.151300
     11 C6          -8.6850    17.0280    26.7170 c3         1 XV6       0.105700
     12 C7          -8.3870    14.8300    25.4710 c3         1 XV6       0.143800
     13 C31        -11.5460    15.2560    28.5410 c3         1 XV6      -0.048100
     14 C32        -11.7990    13.9650    29.3110 ca         1 XV6      -0.091800
     15 C33        -11.3280    12.7330    28.8160 ca         1 XV6      -0.109500
     16 C34        -11.5380    11.5510    29.5460 ca         1 XV6      -0.114000
     17 C35        -12.2230    11.5930    30.7730 ca         1 XV6      -0.108500
     18 C36        -12.6980    12.8180    31.2690 ca         1 XV6      -0.114000
     19 C37        -12.4860    14.0010    30.5400 ca         1 XV6      -0.109500
     20 C61         -7.3940    17.6250    27.3460 c3         1 XV6      -0.048100
     21 C62         -6.1390    17.1800    26.6040 ca         1 XV6      -0.091800
     22 C63         -5.3280    16.1530    27.1240 ca         1 XV6      -0.109500
     23 C64         -4.1890    15.7250    26.4190 ca         1 XV6      -0.114000
     24 C65         -3.8540    16.3240    25.1920 ca         1 XV6      -0.108500
     25 C66         -4.6580    17.3510    24.6710 ca         1 XV6      -0.114000
     26 C67         -5.7980    17.7770    25.3750 ca         1 XV6      -0.109500
     27 C20         -8.7440    15.6570    31.6490 ca         1 XV6      -0.110800
     28 C21         -9.6960    15.4040    32.6560 ca         1 XV6      -0.072000
     29 C22         -9.8170    16.2660    33.7740 ca         1 XV6      -0.152100
     30 C23         -8.9540    17.3830    33.8580 ca         1 XV6      -0.045500
     31 C24         -8.0010    17.6320    32.8550 ca         1 XV6      -0.123500
     32 C25         -7.8970    16.7720    31.7520 ca         1 XV6      -0.065500
     33 C26        -10.8400    16.0360    34.8710 c          1 XV6       0.619200
     34 O26        -10.9320    16.7950    35.8250 o          1 XV6      -0.578100
     35 N26        -11.6470    14.9350    34.7260 ns         1 XV6      -0.465900
     36 N27        -13.2980    13.3870    35.1900 nc         1 XV6      -0.714500
     37 C27        -12.6510    14.4850    35.5350 cd         1 XV6       0.537300
     38 C28        -14.2680    13.0930    36.1160 cc         1 XV6       0.302900
     39 S29        -13.1910    15.2490    37.0380 ss         1 XV6       0.050100
     40 C29        -14.3710    13.9600    37.1720 cd         1 XV6      -0.306500
     41 C70         -9.0990    15.3760    24.2400 ca         1 XV6      -0.110800
     42 C71         -8.3650    16.0370    23.2350 ca         1 XV6      -0.072000
     43 C72         -9.0150    16.5780    22.0970 ca         1 XV6      -0.152100
     44 C73        -10.4180    16.4330    21.9930 ca         1 XV6      -0.045500
     45 C74        -11.1480    15.7700    22.9930 ca         1 XV6      -0.123500
     46 C75        -10.4920    15.2430    24.1150 ca         1 XV6      -0.065500
     47 C76         -8.2620    17.3080    21.0010 c          1 XV6       0.619200
     48 O76         -8.8420    17.7770    20.0340 o          1 XV6      -0.578100
     49 N76         -6.9020    17.4090    21.1640 ns         1 XV6      -0.465900
     50 N77         -4.7070    17.9810    20.7230 nc         1 XV6      -0.714500
     51 C77         -5.9770    18.0120    20.3610 cd         1 XV6       0.537300
     52 C78         -3.9300    18.6360    19.8000 cc         1 XV6       0.302900
     53 S79         -6.3160    18.8570    18.8430 ss         1 XV6       0.050100
     54 C79         -4.5960    19.1720    18.7290 cd         1 XV6      -0.306500
     55 HO51       -10.0800    19.1390    25.8180 ho         1 XV6       0.459500
     56 H21         -9.2480    13.8310    30.6120 h1         1 XV6       0.068450
     57 H22         -7.6040    14.4130    30.3500 h1         1 XV6       0.068450
     58 H31        -10.6790    16.1930    30.2060 h1         1 XV6       0.069700
     59 H41         -9.4260    18.0110    29.2100 h1         1 XV6       0.056700
     60 H51        -10.8310    17.1680    26.6290 h1         1 XV6       0.056700
     61 H61         -8.6050    17.3200    25.6640 h1         1 XV6       0.069700
     62 H71         -7.3000    14.8670    25.3190 h1         1 XV6       0.068450
     63 H72         -8.6600    13.7710    25.5690 h1         1 XV6       0.068450
     64 H311       -12.4620    15.8590    28.5460 hc         1 XV6       0.065950
     65 H312       -11.3390    15.0390    27.4870 hc         1 XV6       0.065950
     66 H331       -10.7890    12.6920    27.8720 ha         1 XV6       0.115000
     67 H341       -11.1690    10.6020    29.1620 ha         1 XV6       0.120750
     68 H351       -12.3850    10.6770    31.3370 ha         1 XV6       0.117500
     69 H361       -13.2300    12.8510    32.2170 ha         1 XV6       0.120750
     70 H371       -12.8530    14.9470    30.9330 ha         1 XV6       0.115000
     71 H611        -7.4520    18.7200    27.3250 hc         1 XV6       0.065950
     72 H612        -7.3280    17.3510    28.4050 hc         1 XV6       0.065950
     73 H631        -5.5830    15.6780    28.0680 ha         1 XV6       0.115000
     74 H641        -3.5670    14.9290    26.8230 ha         1 XV6       0.120750
     75 H651        -2.9730    15.9930    24.6470 ha         1 XV6       0.117500
     76 H661        -4.3980    17.8170    23.7230 ha         1 XV6       0.120750
     77 H671        -6.4180    18.5710    24.9620 ha         1 XV6       0.115000
     78 H211       -10.3390    14.5350    32.5440 ha         1 XV6       0.121500
     79 H231        -9.0180    18.0670    34.7020 ha         1 XV6       0.141500
     80 H241        -7.3450    18.4960    32.9330 ha         1 XV6       0.125000
     81 H251        -7.1610    16.9740    30.9760 ha         1 XV6       0.123500
     82 HN26       -11.4680    14.3850    33.9040 hn         1 XV6       0.343000
     83 H281       -14.8780    12.2130    35.9560 h4         1 XV6       0.040600
     84 H291       -15.0600    13.9170    38.0060 h4         1 XV6       0.160500
     85 H711        -7.2900    16.1270    23.3640 ha         1 XV6       0.121500
     86 H731       -10.9510    16.8350    21.1330 ha         1 XV6       0.141500
     87 H741       -12.2270    15.6670    22.8980 ha         1 XV6       0.125000
     88 H751       -11.0650    14.7370    24.8890 ha         1 XV6       0.123500
     89 HN76        -6.5430    16.9750    21.9960 hn         1 XV6       0.343000
     90 H781        -2.8630    18.6870    19.9740 h4         1 XV6       0.040600
     91 H791        -4.1820    19.7230    17.8940 h4         1 XV6       0.160500
     92 HO41       -11.4380    19.0720    28.4110 ho         1 XV6       0.459500
@<TRIPOS>BOND
     1     1     6 2   
     2     2     9 1   
     3     2    92 1   
     4     3    10 1   
     5     3    55 1   
     6     4     6 1   
     7     4     7 1   
     8     4     8 1   
     9     5     6 1   
    10     5    11 1   
    11     5    12 1   
    12     7    27 1   
    13     7    56 1   
    14     7    57 1   
    15     8     9 1   
    16     8    13 1   
    17     8    58 1   
    18     9    10 1   
    19     9    59 1   
    20    10    11 1   
    21    10    60 1   
    22    11    20 1   
    23    11    61 1   
    24    12    41 1   
    25    12    62 1   
    26    12    63 1   
    27    13    14 1   
    28    13    64 1   
    29    13    65 1   
    30    14    15 ar  
    31    14    19 ar  
    32    15    16 ar  
    33    15    66 1   
    34    16    17 ar  
    35    16    67 1   
    36    17    18 ar  
    37    17    68 1   
    38    18    19 ar  
    39    18    69 1   
    40    19    70 1   
    41    20    21 1   
    42    20    71 1   
    43    20    72 1   
    44    21    22 ar  
    45    21    26 ar  
    46    22    23 ar  
    47    22    73 1   
    48    23    24 ar  
    49    23    74 1   
    50    24    25 ar  
    51    24    75 1   
    52    25    26 ar  
    53    25    76 1   
    54    26    77 1   
    55    27    28 ar  
    56    27    32 ar  
    57    28    29 ar  
    58    28    78 1   
    59    29    30 ar  
    60    29    33 1   
    61    30    31 ar  
    62    30    79 1   
    63    31    32 ar  
    64    31    80 1   
    65    32    81 1   
    66    33    34 2   
    67    33    35 1   
    68    35    37 1   
    69    35    82 1   
    70    36    37 2   
    71    36    38 1   
    72    37    39 1   
    73    38    40 2   
    74    38    83 1   
    75    39    40 1   
    76    40    84 1   
    77    41    42 ar  
    78    41    46 ar  
    79    42    43 ar  
    80    42    85 1   
    81    43    44 ar  
    82    43    47 1   
    83    44    45 ar  
    84    44    86 1   
    85    45    46 ar  
    86    45    87 1   
    87    46    88 1   
    88    47    48 2   
    89    47    49 1   
    90    49    51 1   
    91    49    89 1   
    92    50    51 2   
    93    50    52 1   
    94    51    53 1   
    95    52    54 2   
    96    52    90 1   
    97    53    54 1   
    98    54    91 1   
@<TRIPOS>SUBSTRUCTURE
     1 XV6         1 TEMP              0 ****  ****    0 ROOT
