@<TRIPOS>MOLECULE
XV7
   29    31     1     0     0
SMALL
No Charge or Current Charge


@<TRIPOS>ATOM
      1 C7          55.1290   -13.1190    41.2350 ca         1 XV7      -0.118300
      2 C6          55.0500   -13.0830    39.7030 c5         1 XV7       0.014200
      3 C1          50.8780   -12.1090    39.3980 ca         1 XV7      -0.037500
      4 C11         53.6210   -12.7940    43.1050 ca         1 XV7      -0.127500
      5 C10         54.6940   -13.0580    43.9830 ca         1 XV7      -0.037500
      6 C9          55.9930   -13.3480    43.4840 ca         1 XV7      -0.230500
      7 C8          56.2110   -13.3850    42.0850 ca         1 XV7      -0.017000
      8 O3          57.0400   -12.8680    45.8150 o          1 XV7      -0.703533
      9 C12         53.8530   -12.8270    41.7170 cp         1 XV7      -0.025000
     10 S1          57.3860   -13.7040    44.6550 s6         1 XV7       1.269100
     11 O2          49.6310   -11.0280    36.9140 o          1 XV7      -0.703533
     12 O1          50.1460   -13.3920    36.3300 o          1 XV7      -0.703533
     13 C           51.5610   -12.2460    38.1590 ca         1 XV7      -0.230500
     14 O           51.7140   -11.5810    35.6480 o          1 XV7      -0.703533
     15 C2          51.5560   -12.2810    40.6240 ca         1 XV7      -0.127500
     16 C3          52.9280   -12.5970    40.6050 cp         1 XV7      -0.025000
     17 C4          53.5890   -12.7360    39.3850 ca         1 XV7      -0.118300
     18 C5          52.9390   -12.5720    38.1540 ca         1 XV7      -0.017000
     19 O4          57.2340   -15.1540    44.8480 o          1 XV7      -0.703533
     20 O5          58.5640   -13.2850    43.8790 o          1 XV7      -0.703533
     21 S           50.6490   -12.0290    36.5590 s6         1 XV7       1.269100
     22 H1          55.3340   -14.0470    39.2670 hc         1 XV7       0.054700
     23 H2          55.7360   -12.3370    39.2870 hc         1 XV7       0.054700
     24 H3          49.8160   -11.8710    39.4110 ha         1 XV7       0.118000
     25 H4          52.6320   -12.5720    43.4950 ha         1 XV7       0.093500
     26 H5          54.5140   -13.0390    45.0560 ha         1 XV7       0.118000
     27 H6          57.1900   -13.6150    41.6710 ha         1 XV7       0.123000
     28 H7          51.0260   -12.1730    41.5660 ha         1 XV7       0.093500
     29 H8          53.4890   -12.6950    37.2230 ha         1 XV7       0.123000
@<TRIPOS>BOND
     1     1     2 1   
     2     1     7 ar  
     3     1     9 ar  
     4     2    17 1   
     5     2    22 1   
     6     2    23 1   
     7     3    13 ar  
     8     3    15 ar  
     9     3    24 1   
    10     4     5 ar  
    11     4     9 ar  
    12     4    25 1   
    13     5     6 ar  
    14     5    26 1   
    15     6     7 ar  
    16     6    10 1   
    17     7    27 1   
    18     8    10 1   
    19     9    16 1   
    20    10    19 1   
    21    10    20 1   
    22    11    21 1   
    23    12    21 1   
    24    13    18 ar  
    25    13    21 1   
    26    14    21 1   
    27    15    16 ar  
    28    15    28 1   
    29    16    17 ar  
    30    17    18 ar  
    31    18    29 1   
@<TRIPOS>SUBSTRUCTURE
     1 XV7         1 TEMP              0 ****  ****    0 ROOT
