@<TRIPOS>MOLECULE
XV7
   29    31     1     0     0
SMALL
abcg2


@<TRIPOS>ATOM
      1 C7          55.0800   -13.1060    41.2170 ca         1 XV7      -0.118300
      2 C6          55.0340   -13.0850    39.7140 c5         1 XV7       0.014200
      3 C1          50.9040   -12.0920    39.4120 ca         1 XV7      -0.037500
      4 C11         53.6190   -12.7810    43.1200 ca         1 XV7      -0.127500
      5 C10         54.6960   -13.0300    43.9580 ca         1 XV7      -0.037500
      6 C9          55.9540   -13.3110    43.4280 ca         1 XV7      -0.230500
      7 C8          56.1540   -13.3520    42.0520 ca         1 XV7      -0.017000
      8 O3          57.0860   -12.9070    45.7450 o          1 XV7      -0.703533
      9 C12         53.8170   -12.8200    41.7460 cp         1 XV7      -0.025000
     10 S1          57.3050   -13.7180    44.5350 s6         1 XV7       1.269100
     11 O2          49.5940   -11.2040    36.9160 o          1 XV7      -0.703533
     12 O1          50.3590   -13.4530    36.2890 o          1 XV7      -0.703533
     13 C           51.6050   -12.2440    38.2180 ca         1 XV7      -0.230500
     14 O           51.7390   -11.5000    35.7270 o          1 XV7      -0.703533
     15 C2          51.5450   -12.2650    40.6310 ca         1 XV7      -0.127500
     16 C3          52.8930   -12.5920    40.6390 cp         1 XV7      -0.025000
     17 C4          53.5950   -12.7450    39.4380 ca         1 XV7      -0.118300
     18 C5          52.9580   -12.5750    38.2240 ca         1 XV7      -0.017000
     19 O4          57.1590   -15.1640    44.7710 o          1 XV7      -0.703533
     20 O5          58.5350   -13.3690    43.8020 o          1 XV7      -0.703533
     21 S           50.7480   -12.0800    36.6500 s6         1 XV7       1.269100
     22 H1          55.3170   -14.0480    39.2810 hc         1 XV7       0.054700
     23 H2          55.7180   -12.3430    39.2940 hc         1 XV7       0.054700
     24 H3          49.8560   -11.8270    39.3940 ha         1 XV7       0.118000
     25 H4          52.6460   -12.5580    43.5390 ha         1 XV7       0.093500
     26 H5          54.5550   -12.9940    45.0300 ha         1 XV7       0.118000
     27 H6          57.1340   -13.5620    41.6440 ha         1 XV7       0.123000
     28 H7          50.9940   -12.1380    41.5550 ha         1 XV7       0.093500
     29 H8          53.5040   -12.6830    37.2960 ha         1 XV7       0.123000
@<TRIPOS>BOND
     1     1     2 1   
     2     1     7 ar  
     3     1     9 ar  
     4     2    17 1   
     5     2    22 1   
     6     2    23 1   
     7     3    13 ar  
     8     3    15 ar  
     9     3    24 1   
    10     4     5 ar  
    11     4     9 ar  
    12     4    25 1   
    13     5     6 ar  
    14     5    26 1   
    15     6     7 ar  
    16     6    10 1   
    17     7    27 1   
    18     8    10 1   
    19     9    16 1   
    20    10    19 1   
    21    10    20 1   
    22    11    21 1   
    23    12    21 1   
    24    13    18 ar  
    25    13    21 1   
    26    14    21 1   
    27    15    16 ar  
    28    15    28 1   
    29    16    17 ar  
    30    17    18 ar  
    31    18    29 1   
@<TRIPOS>SUBSTRUCTURE
     1 XV7         1 TEMP              0 ****  ****    0 ROOT
