@<TRIPOS>MOLECULE
XV9
   93    95     1     0     0
SMALL
No Charge or Current Charge


@<TRIPOS>ATOM
      1 N1          75.9600    -2.8780     2.0990 ns         1 XV9      -0.481900
      2 N3          72.7420    -0.4500     7.0680 n          1 XV9      -0.242200
      3 C4          76.6620    -2.6550     0.9340 c          1 XV9       0.583100
      4 C5          74.8770    -2.0090     2.6210 c3         1 XV9       0.042700
      5 C6          73.4460    -2.5450     2.2270 c3         1 XV9      -0.050000
      6 C7          73.1390    -3.8930     2.9360 c3         1 XV9      -0.090767
      7 C8          73.3460    -2.7660     0.6880 c3         1 XV9      -0.090767
      8 C10         75.1000    -1.8300     4.1540 c          1 XV9       0.596100
      9 C13         77.3840     0.3810     5.0310 ca         1 XV9      -0.086300
     10 C15         79.4170    -0.9630     4.8970 ca         1 XV9      -0.107500
     11 C17         78.5570     0.1320     2.9030 ca         1 XV9      -0.107500
     12 C20         72.8420    -1.9210     6.8980 c3         1 XV9       0.094300
     13 C21         70.3890     0.3270     6.7940 c3         1 XV9       0.282100
     14 C22         69.6920    -0.9170     6.2420 ca         1 XV9      -0.102300
     15 C24         68.9690    -2.2640     4.3360 ca         1 XV9      -0.114500
     16 C26         68.5290    -3.0370     6.5990 ca         1 XV9      -0.114500
     17 C28         71.4770     0.0290     9.0950 c2         1 XV9       0.648100
     18 N           77.7410    -3.9070    -0.9000 ns         1 XV9      -0.475900
     19 C           76.9490    -4.7680    -1.6020 c          1 XV9       0.634100
     20 O           76.2190    -5.6080    -1.1000 o          1 XV9      -0.538000
     21 C1          77.6900    -3.7610     0.5680 c3         1 XV9       0.048700
     22 C11         75.0650    -0.1070     6.0090 c3         1 XV9       0.036700
     23 C12         76.2110     0.9280     5.8410 c3         1 XV9      -0.043100
     24 C14         78.3510    -0.4370     5.6470 ca         1 XV9      -0.099500
     25 C16         79.5210    -0.6780     3.5260 ca         1 XV9      -0.113000
     26 C18         77.4940     0.6620     3.6540 ca         1 XV9      -0.099500
     27 C19         73.8370     0.4350     6.8120 c          1 XV9       0.582100
     28 C2          79.0890    -3.4520     1.1540 c3         1 XV9      -0.087400
     29 C23         69.5900    -1.1120     4.8500 ca         1 XV9      -0.099000
     30 C25         68.4400    -3.2280     5.2100 ca         1 XV9      -0.107000
     31 C27         69.1510    -1.8860     7.1130 ca         1 XV9      -0.099000
     32 C3          80.1330    -4.5600     0.8980 c3         1 XV9      -0.088100
     33 C32         76.0120    -4.9950    -3.8010 c3         1 XV9       0.230900
     34 C33         74.6550    -4.3700    -3.4700 ca         1 XV9      -0.124300
     35 C34         73.5750    -5.1790    -3.0610 ca         1 XV9      -0.083500
     36 C35         72.3380    -4.5970    -2.7310 ca         1 XV9      -0.114000
     37 C36         72.1720    -3.2040    -2.8080 ca         1 XV9      -0.103000
     38 C37         73.2440    -2.3930    -3.2160 ca         1 XV9      -0.114000
     39 C38         74.4810    -2.9730    -3.5460 ca         1 XV9      -0.083500
     40 C9          72.3540    -1.5130     2.6200 c3         1 XV9      -0.090767
     41 N2          74.6580    -0.6340     4.6850 ns         1 XV9      -0.495900
     42 N4          71.5160     0.0350     7.7080 nh         1 XV9      -0.551600
     43 N6          70.4350     0.4220     9.7260 n2         1 XV9      -0.848100
     44 O4          75.6690    -2.6670     4.8450 o          1 XV9      -0.605100
     45 O5          76.4690    -1.6630     0.2400 o          1 XV9      -0.610100
     46 O6          77.0080    -4.4400    -2.9220 os         1 XV9      -0.452100
     47 H10         76.2160    -3.6950     2.6420 hn         1 XV9       0.334500
     48 H1          75.0020    -1.0120     2.1790 h1         1 XV9       0.085700
     49 H11         73.1380    -3.7830     4.0270 hc         1 XV9       0.041256
     50 H12         72.1520    -4.2720     2.6430 hc         1 XV9       0.041256
     51 H13         73.8800    -4.6580     2.6730 hc         1 XV9       0.041256
     52 H15         72.3300    -3.0620     0.3980 hc         1 XV9       0.041256
     53 H14         73.5940    -1.8480     0.1420 hc         1 XV9       0.041256
     54 H16         74.0220    -3.5590     0.3470 hc         1 XV9       0.041256
     55 H24         80.1610    -1.5940     5.3790 ha         1 XV9       0.114000
     56 H26         78.6330     0.3490     1.8400 ha         1 XV9       0.114000
     57 H28         72.0560    -2.4220     7.4770 h1         1 XV9       0.053367
     58 H30         72.7150    -2.1830     5.8420 h1         1 XV9       0.053367
     59 H29         73.8150    -2.2820     7.2520 h1         1 XV9       0.053367
     60 H31         70.7730     0.9100     5.9460 h1         1 XV9       0.075200
     61 H32         69.6470     0.9670     7.2890 h1         1 XV9       0.075200
     62 H34         68.8970    -2.4090     3.2600 ha         1 XV9       0.112000
     63 H36         68.1180    -3.7810     7.2770 ha         1 XV9       0.112000
     64 H3          72.3870    -0.3140     9.5910 h5         1 XV9      -0.024200
     65 H4          78.2360    -3.2150    -1.4480 hn         1 XV9       0.332500
     66 H           77.3310    -4.7020     1.0050 h1         1 XV9       0.081700
     67 H2          75.4660    -0.9340     6.6080 h1         1 XV9       0.096700
     68 H21         76.5570     1.2440     6.8330 hc         1 XV9       0.067700
     69 H22         75.8130     1.8300     5.3580 hc         1 XV9       0.067700
     70 H23         78.2740    -0.6690     6.7070 ha         1 XV9       0.111000
     71 H25         80.3470    -1.0850     2.9460 ha         1 XV9       0.111000
     72 H27         76.7510     1.2860     3.1620 ha         1 XV9       0.111000
     73 H5          79.4580    -2.5050     0.7410 hc         1 XV9       0.058200
     74 H6          78.9930    -3.3080     2.2370 hc         1 XV9       0.058200
     75 H33         69.9930    -0.3720     4.1620 ha         1 XV9       0.116000
     76 H35         67.9600    -4.1190     4.8130 ha         1 XV9       0.112000
     77 H37         69.2170    -1.7490     8.1900 ha         1 XV9       0.116000
     78 H7          81.0860    -4.3030     1.3760 hc         1 XV9       0.039033
     79 H9          79.7910    -5.5180     1.3100 hc         1 XV9       0.039033
     80 H8          80.3150    -4.6900    -0.1750 hc         1 XV9       0.039033
     81 H44         75.9680    -6.0890    -3.7060 h1         1 XV9       0.065700
     82 H45         76.2600    -4.7650    -4.8450 h1         1 XV9       0.065700
     83 H46         73.6950    -6.2580    -2.9890 ha         1 XV9       0.117000
     84 H47         71.5100    -5.2260    -2.4130 ha         1 XV9       0.113000
     85 H48         71.2150    -2.7550    -2.5500 ha         1 XV9       0.111000
     86 H49         73.1180    -1.3140    -3.2730 ha         1 XV9       0.113000
     87 H50         75.3080    -2.3370    -3.8540 ha         1 XV9       0.117000
     88 H19         72.2860    -1.3920     3.7060 hc         1 XV9       0.041256
     89 H18         72.5620    -0.5310     2.1760 hc         1 XV9       0.041256
     90 H17         71.3670    -1.8360     2.2680 hc         1 XV9       0.041256
     91 H20         74.1890    -0.0020     4.0450 hn         1 XV9       0.322500
     92 H43         70.6310     0.3410    10.7340 hn         1 XV9       0.392400
     93 O3          73.7810     1.6090     7.1700 o          1 XV9      -0.574100
@<TRIPOS>BOND
     1     1     3 1   
     2     1     4 1   
     3     1    47 1   
     4     2    12 1   
     5     2    27 1   
     6     2    42 1   
     7     3    21 1   
     8     3    45 2   
     9     4     5 1   
    10     4     8 1   
    11     4    48 1   
    12     5     6 1   
    13     5     7 1   
    14     5    40 1   
    15     6    49 1   
    16     6    50 1   
    17     6    51 1   
    18     7    52 1   
    19     7    53 1   
    20     7    54 1   
    21     8    41 1   
    22     8    44 2   
    23     9    23 1   
    24     9    24 ar  
    25     9    26 ar  
    26    10    24 ar  
    27    10    25 ar  
    28    10    55 1   
    29    11    25 ar  
    30    11    26 ar  
    31    11    56 1   
    32    12    57 1   
    33    12    58 1   
    34    12    59 1   
    35    13    14 1   
    36    13    42 1   
    37    13    60 1   
    38    13    61 1   
    39    14    29 ar  
    40    14    31 ar  
    41    15    29 ar  
    42    15    30 ar  
    43    15    62 1   
    44    16    30 ar  
    45    16    31 ar  
    46    16    63 1   
    47    17    42 1   
    48    17    43 2   
    49    17    64 1   
    50    18    19 1   
    51    18    21 1   
    52    18    65 1   
    53    19    20 2   
    54    19    46 1   
    55    21    28 1   
    56    21    66 1   
    57    22    23 1   
    58    22    27 1   
    59    22    41 1   
    60    22    67 1   
    61    23    68 1   
    62    23    69 1   
    63    24    70 1   
    64    25    71 1   
    65    26    72 1   
    66    27    93 2   
    67    28    32 1   
    68    28    73 1   
    69    28    74 1   
    70    29    75 1   
    71    30    76 1   
    72    31    77 1   
    73    32    78 1   
    74    32    79 1   
    75    32    80 1   
    76    33    34 1   
    77    33    46 1   
    78    33    81 1   
    79    33    82 1   
    80    34    35 ar  
    81    34    39 ar  
    82    35    36 ar  
    83    35    83 1   
    84    36    37 ar  
    85    36    84 1   
    86    37    38 ar  
    87    37    85 1   
    88    38    39 ar  
    89    38    86 1   
    90    39    87 1   
    91    40    88 1   
    92    40    89 1   
    93    40    90 1   
    94    41    91 1   
    95    43    92 1   
@<TRIPOS>SUBSTRUCTURE
     1 XV9         1 TEMP              0 ****  ****    0 ROOT
