@<TRIPOS>MOLECULE
XV9
   93    95     1     0     0
SMALL
abcg2


@<TRIPOS>ATOM
      1 N1          75.8970    -3.0120     1.9780 ns         1 XV9      -0.481900
      2 N3          72.7770    -0.5400     6.8630 n          1 XV9      -0.242200
      3 C4          76.5970    -2.6910     0.8780 c          1 XV9       0.583100
      4 C5          74.7960    -2.2380     2.4970 c3         1 XV9       0.042700
      5 C6          73.4180    -2.9240     2.2510 c3         1 XV9      -0.050000
      6 C7          73.3500    -4.3160     2.8800 c3         1 XV9      -0.090767
      7 C8          73.2080    -3.0490     0.7410 c3         1 XV9      -0.090767
      8 C10         75.0760    -1.9700     3.9740 c          1 XV9       0.596100
      9 C13         77.3520     0.2200     5.1570 ca         1 XV9      -0.086300
     10 C15         79.3920    -1.0520     5.4190 ca         1 XV9      -0.107500
     11 C17         78.8150    -0.1530     3.2690 ca         1 XV9      -0.107500
     12 C20         72.9810    -1.9760     7.0030 c3         1 XV9       0.094300
     13 C21         70.5230     0.2790     6.5850 c3         1 XV9       0.282100
     14 C22         69.7350    -0.9510     6.2140 ca         1 XV9      -0.102300
     15 C24         68.7090    -2.3490     4.5320 ca         1 XV9      -0.114500
     16 C26         68.5130    -2.9340     6.8520 ca         1 XV9      -0.114500
     17 C28         71.7590     0.4570     8.7220 c2         1 XV9       0.648100
     18 N           77.8010    -3.8690    -0.8800 ns         1 XV9      -0.475900
     19 C           76.7990    -4.5330    -1.4900 c          1 XV9       0.634100
     20 O           75.9280    -5.1440    -0.9080 o          1 XV9      -0.538000
     21 C1          77.7470    -3.6470     0.5440 c3         1 XV9       0.048700
     22 C11         74.9630    -0.2660     5.7520 c3         1 XV9       0.036700
     23 C12         76.0830     0.7810     5.7320 c3         1 XV9      -0.043100
     24 C14         78.2330    -0.5070     5.9540 ca         1 XV9      -0.099500
     25 C16         79.6860    -0.8770     4.0720 ca         1 XV9      -0.113000
     26 C18         77.6570     0.3900     3.8090 ca         1 XV9      -0.099500
     27 C19         73.6840     0.3350     6.3440 c          1 XV9       0.582100
     28 C2          79.0660    -3.0620     1.0440 c3         1 XV9      -0.087400
     29 C23         69.4560    -1.2300     4.8820 ca         1 XV9      -0.099000
     30 C25         68.2380    -3.2050     5.5160 ca         1 XV9      -0.107000
     31 C27         69.2540    -1.8130     7.1980 ca         1 XV9      -0.099000
     32 C3          80.2570    -3.9790     0.8150 c3         1 XV9      -0.088100
     33 C32         75.8140    -5.0010    -3.5710 c3         1 XV9       0.230900
     34 C33         74.5390    -4.2220    -3.3890 ca         1 XV9      -0.124300
     35 C34         73.3350    -4.8860    -3.1840 ca         1 XV9      -0.083500
     36 C35         72.1500    -4.1760    -3.0420 ca         1 XV9      -0.114000
     37 C36         72.1600    -2.7890    -3.0900 ca         1 XV9      -0.103000
     38 C37         73.3600    -2.1180    -3.2900 ca         1 XV9      -0.114000
     39 C38         74.5410    -2.8300    -3.4430 ca         1 XV9      -0.083500
     40 C9          72.2950    -2.0550     2.8200 c3         1 XV9      -0.090767
     41 N2          74.6810    -0.7620     4.4240 ns         1 XV9      -0.495900
     42 N4          71.6570     0.0000     7.4390 nh         1 XV9      -0.551600
     43 N6          70.8020     1.0310     9.3260 n2         1 XV9      -0.848100
     44 O4          75.6030    -2.8130     4.6810 o          1 XV9      -0.605100
     45 O5          76.3770    -1.7100     0.1860 o          1 XV9      -0.610100
     46 O6          76.8970    -4.4530    -2.8220 os         1 XV9      -0.452100
     47 H10         76.1630    -3.8390     2.4900 hn         1 XV9       0.334500
     48 H1          74.7850    -1.2910     1.9520 h1         1 XV9       0.085700
     49 H11         73.4420    -4.2880     3.9660 hc         1 XV9       0.041256
     50 H12         72.3860    -4.7710     2.6470 hc         1 XV9       0.041256
     51 H13         74.1220    -4.9810     2.4890 hc         1 XV9       0.041256
     52 H15         72.2300    -3.4900     0.5400 hc         1 XV9       0.041256
     53 H14         73.2350    -2.0750     0.2470 hc         1 XV9       0.041256
     54 H16         73.9550    -3.6880     0.2710 hc         1 XV9       0.041256
     55 H24         80.0670    -1.6110     6.0530 ha         1 XV9       0.114000
     56 H26         79.0360    -0.0120     2.2180 ha         1 XV9       0.114000
     57 H28         72.0350    -2.4200     7.2960 h1         1 XV9       0.053367
     58 H30         73.2800    -2.4350     6.0650 h1         1 XV9       0.053367
     59 H29         73.7250    -2.2090     7.7670 h1         1 XV9       0.053367
     60 H31         70.8650     0.7920     5.6830 h1         1 XV9       0.075200
     61 H32         69.8890     0.9820     7.1270 h1         1 XV9       0.075200
     62 H34         68.5030    -2.5530     3.4890 ha         1 XV9       0.112000
     63 H36         68.1480    -3.5960     7.6270 ha         1 XV9       0.112000
     64 H3          72.7400     0.2490     9.1530 h5         1 XV9      -0.024200
     65 H4          78.3810    -3.2580    -1.4350 hn         1 XV9       0.332500
     66 H           77.5890    -4.6080     1.0400 h1         1 XV9       0.081700
     67 H2          75.2890    -1.1150     6.3550 h1         1 XV9       0.096700
     68 H21         76.2530     1.1250     6.7550 hc         1 XV9       0.067700
     69 H22         75.7600     1.6470     5.1530 hc         1 XV9       0.067700
     70 H23         78.0110    -0.6460     7.0060 ha         1 XV9       0.111000
     71 H25         80.5890    -1.3010     3.6510 ha         1 XV9       0.111000
     72 H27         76.9870     0.9590     3.1760 ha         1 XV9       0.111000
     73 H5          79.2370    -2.0920     0.5660 hc         1 XV9       0.058200
     74 H6          78.9560    -2.8610     2.1110 hc         1 XV9       0.058200
     75 H33         69.8280    -0.5690     4.1080 ha         1 XV9       0.116000
     76 H35         67.6590    -4.0800     5.2470 ha         1 XV9       0.112000
     77 H37         69.4580    -1.6080     8.2420 ha         1 XV9       0.116000
     78 H7          81.1590    -3.5420     1.2450 hc         1 XV9       0.039033
     79 H9          80.1020    -4.9510     1.2860 hc         1 XV9       0.039033
     80 H8          80.4480    -4.1480    -0.2440 hc         1 XV9       0.039033
     81 H44         75.6610    -6.0530    -3.3240 h1         1 XV9       0.065700
     82 H45         76.1490    -4.9500    -4.6070 h1         1 XV9       0.065700
     83 H46         73.3220    -5.9680    -3.1280 ha         1 XV9       0.117000
     84 H47         71.2210    -4.7080    -2.8810 ha         1 XV9       0.113000
     85 H48         71.2390    -2.2330    -2.9700 ha         1 XV9       0.111000
     86 H49         73.3760    -1.0370    -3.3300 ha         1 XV9       0.113000
     87 H50         75.4680    -2.2920    -3.6040 ha         1 XV9       0.117000
     88 H19         72.3030    -2.0110     3.9090 hc         1 XV9       0.041256
     89 H18         72.3460    -1.0320     2.4400 hc         1 XV9       0.041256
     90 H17         71.3290    -2.4670     2.5240 hc         1 XV9       0.041256
     91 H20         74.3470    -0.0890     3.7500 hn         1 XV9       0.322500
     92 H43         71.0900     1.2770    10.2640 hn         1 XV9       0.392400
     93 O3          73.4850     1.5340     6.3380 o          1 XV9      -0.574100
@<TRIPOS>BOND
     1     1     3 1   
     2     1     4 1   
     3     1    47 1   
     4     2    12 1   
     5     2    27 1   
     6     2    42 1   
     7     3    21 1   
     8     3    45 2   
     9     4     5 1   
    10     4     8 1   
    11     4    48 1   
    12     5     6 1   
    13     5     7 1   
    14     5    40 1   
    15     6    49 1   
    16     6    50 1   
    17     6    51 1   
    18     7    52 1   
    19     7    53 1   
    20     7    54 1   
    21     8    41 1   
    22     8    44 2   
    23     9    23 1   
    24     9    24 ar  
    25     9    26 ar  
    26    10    24 ar  
    27    10    25 ar  
    28    10    55 1   
    29    11    25 ar  
    30    11    26 ar  
    31    11    56 1   
    32    12    57 1   
    33    12    58 1   
    34    12    59 1   
    35    13    14 1   
    36    13    42 1   
    37    13    60 1   
    38    13    61 1   
    39    14    29 ar  
    40    14    31 ar  
    41    15    29 ar  
    42    15    30 ar  
    43    15    62 1   
    44    16    30 ar  
    45    16    31 ar  
    46    16    63 1   
    47    17    42 1   
    48    17    43 2   
    49    17    64 1   
    50    18    19 1   
    51    18    21 1   
    52    18    65 1   
    53    19    20 2   
    54    19    46 1   
    55    21    28 1   
    56    21    66 1   
    57    22    23 1   
    58    22    27 1   
    59    22    41 1   
    60    22    67 1   
    61    23    68 1   
    62    23    69 1   
    63    24    70 1   
    64    25    71 1   
    65    26    72 1   
    66    27    93 2   
    67    28    32 1   
    68    28    73 1   
    69    28    74 1   
    70    29    75 1   
    71    30    76 1   
    72    31    77 1   
    73    32    78 1   
    74    32    79 1   
    75    32    80 1   
    76    33    34 1   
    77    33    46 1   
    78    33    81 1   
    79    33    82 1   
    80    34    35 ar  
    81    34    39 ar  
    82    35    36 ar  
    83    35    83 1   
    84    36    37 ar  
    85    36    84 1   
    86    37    38 ar  
    87    37    85 1   
    88    38    39 ar  
    89    38    86 1   
    90    39    87 1   
    91    40    88 1   
    92    40    89 1   
    93    40    90 1   
    94    41    91 1   
    95    43    92 1   
@<TRIPOS>SUBSTRUCTURE
     1 XV9         1 TEMP              0 ****  ****    0 ROOT
