@<TRIPOS>MOLECULE
XVA
   46    47     1     0     0
SMALL
No Charge or Current Charge


@<TRIPOS>ATOM
      1 C02        -28.2170     8.2270   -38.9830 ca         1 XVA       0.599900
      2 C03        -29.1820     9.2360   -39.0770 ca         1 XVA      -0.184000
      3 C04        -30.3660     9.1050   -38.3280 ca         1 XVA      -0.086300
      4 C05        -30.4940     7.9520   -37.5310 ca         1 XVA      -0.191000
      5 C06        -29.4560     6.9980   -37.5140 ca         1 XVA       0.396300
      6 C07        -31.4640    10.1630   -38.3770 c3         1 XVA       0.216600
      7 C11        -30.5510     3.3930   -36.4930 ca         1 XVA      -0.077300
      8 C12        -29.5670     2.3800   -36.4940 ca         1 XVA       0.120000
      9 C13        -29.7230     1.2430   -35.6790 ca         1 XVA       0.138000
     10 C14        -30.8540     1.1090   -34.8580 ca         1 XVA      -0.129000
     11 C15        -31.8380     2.1140   -34.8450 ca         1 XVA      -0.062300
     12 C16        -31.6820     3.2500   -35.6630 ca         1 XVA      -0.105000
     13 C21        -29.5760     5.7390   -36.6690 c3         1 XVA      -0.123700
     14 C22        -30.4050     4.6370   -37.3650 c3         1 XVA      -0.027100
     15 C23        -33.0690     1.9710   -33.9590 c3         1 XVA      -0.033100
     16 C24        -34.2250     1.2530   -34.6910 c3         1 XVA       0.165800
     17 C26        -36.6270     0.7310   -34.8000 c3         1 XVA       0.148600
     18 C27        -35.4450     0.4740   -32.6650 c3         1 XVA       0.148600
     19 F08        -31.0050    11.3700   -37.9760 f          1 XVA      -0.120000
     20 F09        -31.9420    10.3200   -39.6330 f          1 XVA      -0.120000
     21 F12        -28.4680     2.4980   -37.2770 f          1 XVA      -0.167000
     22 F13        -28.7830     0.2700   -35.6790 f          1 XVA      -0.165000
     23 N01        -28.3240     7.1350   -38.2400 nb         1 XVA      -0.738000
     24 N02        -27.0610     8.2400   -39.6530 nv         1 XVA      -1.053900
     25 N25        -35.5140     1.2120   -33.9500 n3         1 XVA      -0.718600
     26 H1         -29.0140    10.0990   -39.7130 ha         1 XVA       0.136000
     27 H2         -31.3850     7.7910   -36.9300 ha         1 XVA       0.126000
     28 H3         -32.2970     9.8770   -37.7260 h2         1 XVA       0.068700
     29 H4         -30.9620     0.2240   -34.2350 ha         1 XVA       0.135000
     30 H5         -32.4440     4.0270   -35.6540 ha         1 XVA       0.122000
     31 H6         -30.0440     5.9850   -35.7090 hc         1 XVA       0.058200
     32 H7         -28.5810     5.3430   -36.4300 hc         1 XVA       0.058200
     33 H8         -29.9340     4.3820   -38.3220 hc         1 XVA       0.069200
     34 H9         -31.3950     5.0380   -37.6170 hc         1 XVA       0.069200
     35 H10        -32.8060     1.4190   -33.0500 hc         1 XVA       0.058700
     36 H11        -33.4150     2.9590   -33.6320 hc         1 XVA       0.058700
     37 H12        -34.3790     1.7740   -35.6460 h1         1 XVA       0.034200
     38 H13        -33.9010     0.2320   -34.9370 h1         1 XVA       0.034200
     39 H14        -37.5810     0.7870   -34.2600 h1         1 XVA       0.032033
     40 H15        -36.7170     1.3440   -35.7070 h1         1 XVA       0.032033
     41 H16        -36.4650    -0.3120   -35.1050 h1         1 XVA       0.032033
     42 H17        -36.4240     0.4720   -32.1680 h1         1 XVA       0.032033
     43 H18        -35.1410    -0.5690   -32.8280 h1         1 XVA       0.032033
     44 H19        -34.7290     0.9400   -31.9760 h1         1 XVA       0.032033
     45 H20        -26.5760     7.3510   -39.6710 hn         1 XVA       0.475500
     46 H21        -27.0090     8.8010   -40.4950 hn         1 XVA       0.475500
@<TRIPOS>BOND
     1     1     2 ar  
     2     1    23 ar  
     3     1    24 1   
     4     2     3 ar  
     5     2    26 1   
     6     3     4 ar  
     7     3     6 1   
     8     4     5 ar  
     9     4    27 1   
    10     5    13 1   
    11     5    23 ar  
    12     6    19 1   
    13     6    20 1   
    14     6    28 1   
    15     7     8 ar  
    16     7    12 ar  
    17     7    14 1   
    18     8     9 ar  
    19     8    21 1   
    20     9    10 ar  
    21     9    22 1   
    22    10    11 ar  
    23    10    29 1   
    24    11    12 ar  
    25    11    15 1   
    26    12    30 1   
    27    13    14 1   
    28    13    31 1   
    29    13    32 1   
    30    14    33 1   
    31    14    34 1   
    32    15    16 1   
    33    15    35 1   
    34    15    36 1   
    35    16    25 1   
    36    16    37 1   
    37    16    38 1   
    38    17    25 1   
    39    17    39 1   
    40    17    40 1   
    41    17    41 1   
    42    18    25 1   
    43    18    42 1   
    44    18    43 1   
    45    18    44 1   
    46    24    45 1   
    47    24    46 1   
@<TRIPOS>SUBSTRUCTURE
     1 XVA         1 TEMP              0 ****  ****    0 ROOT
