@<TRIPOS>MOLECULE
XVA
   46    47     1     0     0
SMALL
abcg2


@<TRIPOS>ATOM
      1 C02        -28.4240     8.3360   -38.0450 ca         1 XVA       0.599900
      2 C03        -29.2620     9.1900   -38.7840 ca         1 XVA      -0.184000
      3 C04        -30.6060     8.8850   -38.8440 ca         1 XVA      -0.086300
      4 C05        -31.0960     7.7580   -38.1840 ca         1 XVA      -0.191000
      5 C06        -30.1980     6.9680   -37.4750 ca         1 XVA       0.396300
      6 C07        -31.5480     9.7450   -39.6330 c3         1 XVA       0.216600
      7 C11        -30.3740     3.1810   -36.6420 ca         1 XVA      -0.077300
      8 C12        -29.6980     2.0200   -37.0030 ca         1 XVA       0.120000
      9 C13        -29.9430     0.8160   -36.3690 ca         1 XVA       0.138000
     10 C14        -30.8730     0.7230   -35.3520 ca         1 XVA      -0.129000
     11 C15        -31.5670     1.8650   -34.9600 ca         1 XVA      -0.062300
     12 C16        -31.3070     3.0730   -35.6120 ca         1 XVA      -0.105000
     13 C21        -30.6500     5.7300   -36.7470 c3         1 XVA      -0.123700
     14 C22        -30.0620     4.4630   -37.3730 c3         1 XVA      -0.027100
     15 C23        -32.6110     1.7890   -33.8770 c3         1 XVA      -0.033100
     16 C24        -34.0170     1.6170   -34.4630 c3         1 XVA       0.165800
     17 C26        -36.3770     1.7840   -34.0510 c3         1 XVA       0.148600
     18 C27        -35.0430     0.3600   -32.6640 c3         1 XVA       0.148600
     19 F08        -31.3890    11.0740   -39.3120 f          1 XVA      -0.120000
     20 F09        -31.2700     9.6520   -40.9810 f          1 XVA      -0.120000
     21 F12        -28.7690     2.0580   -37.9880 f          1 XVA      -0.167000
     22 F13        -29.2470    -0.2770   -36.7550 f          1 XVA      -0.165000
     23 N01        -28.8920     7.2550   -37.4110 nb         1 XVA      -0.738000
     24 N02        -27.0870     8.6090   -37.9060 nv         1 XVA      -1.053900
     25 N25        -35.0650     1.5900   -33.4470 n3         1 XVA      -0.718600
     26 H1         -28.8540    10.0590   -39.2830 ha         1 XVA       0.136000
     27 H2         -32.1470     7.5050   -38.2190 ha         1 XVA       0.126000
     28 H3         -32.5970     9.4870   -39.4900 h2         1 XVA       0.068700
     29 H4         -31.0410    -0.2340   -34.8730 ha         1 XVA       0.135000
     30 H5         -31.8490     3.9540   -35.2960 ha         1 XVA       0.122000
     31 H6         -31.7400     5.6880   -36.7520 hc         1 XVA       0.058200
     32 H7         -30.3280     5.8020   -35.7050 hc         1 XVA       0.058200
     33 H8         -28.9780     4.5760   -37.4400 hc         1 XVA       0.069200
     34 H9         -30.4150     4.3750   -38.4060 hc         1 XVA       0.069200
     35 H10        -32.3760     0.9570   -33.2120 hc         1 XVA       0.058700
     36 H11        -32.5960     2.7030   -33.2790 hc         1 XVA       0.058700
     37 H12        -34.2180     2.4610   -35.1260 h1         1 XVA       0.034200
     38 H13        -34.0430     0.7060   -35.0870 h1         1 XVA       0.034200
     39 H14        -37.1400     1.8080   -33.2710 h1         1 XVA       0.032033
     40 H15        -36.4010     2.7320   -34.5890 h1         1 XVA       0.032033
     41 H16        -36.6390     0.9790   -34.7590 h1         1 XVA       0.032033
     42 H17        -35.8330     0.3930   -31.9120 h1         1 XVA       0.032033
     43 H18        -35.2020    -0.5340   -33.2920 h1         1 XVA       0.032033
     44 H19        -34.0900     0.2470   -32.1480 h1         1 XVA       0.032033
     45 H20        -26.5100     7.8390   -37.6050 hn         1 XVA       0.475500
     46 H21        -26.6630     9.2170   -38.5890 hn         1 XVA       0.475500
@<TRIPOS>BOND
     1     1     2 ar  
     2     1    23 ar  
     3     1    24 1   
     4     2     3 ar  
     5     2    26 1   
     6     3     4 ar  
     7     3     6 1   
     8     4     5 ar  
     9     4    27 1   
    10     5    13 1   
    11     5    23 ar  
    12     6    19 1   
    13     6    20 1   
    14     6    28 1   
    15     7     8 ar  
    16     7    12 ar  
    17     7    14 1   
    18     8     9 ar  
    19     8    21 1   
    20     9    10 ar  
    21     9    22 1   
    22    10    11 ar  
    23    10    29 1   
    24    11    12 ar  
    25    11    15 1   
    26    12    30 1   
    27    13    14 1   
    28    13    31 1   
    29    13    32 1   
    30    14    33 1   
    31    14    34 1   
    32    15    16 1   
    33    15    35 1   
    34    15    36 1   
    35    16    25 1   
    36    16    37 1   
    37    16    38 1   
    38    17    25 1   
    39    17    39 1   
    40    17    40 1   
    41    17    41 1   
    42    18    25 1   
    43    18    42 1   
    44    18    43 1   
    45    18    44 1   
    46    24    45 1   
    47    24    46 1   
@<TRIPOS>SUBSTRUCTURE
     1 XVA         1 TEMP              0 ****  ****    0 ROOT
