@<TRIPOS>MOLECULE
XVC
   25    25     1     0     0
SMALL
No Charge or Current Charge


@<TRIPOS>ATOM
      1 C1         211.5230   208.3900   252.8270 c6         1 XVC       0.398300
      2 C2         210.1130   207.8930   253.3230 c6         1 XVC       0.165300
      3 C3         210.2730   206.9570   254.5680 c6         1 XVC       0.093300
      4 C4         211.5310   206.0610   254.4090 c6         1 XVC       0.117300
      5 C5         212.8130   206.9740   254.3260 c6         1 XVC       0.150300
      6 C6         213.9040   206.3790   253.3750 c3         1 XVC       0.137800
      7 N1         215.1510   207.1640   253.3510 n2         1 XVC      -0.428200
      8 N2         215.2300   208.0540   252.4880 n1         1 XVC       0.240000
      9 N3         215.3810   208.7780   251.6230 n1         1 XVC      -0.075000
     10 O2         209.2540   209.0020   253.6910 oh         1 XVC      -0.679000
     11 O3         209.0950   206.1560   254.7800 oh         1 XVC      -0.727000
     12 O4         211.6110   205.1080   255.4910 oh         1 XVC      -0.713000
     13 O5         212.4710   208.3320   253.9010 os         1 XVC      -0.486000
     14 O1         211.4150   209.7450   252.4370 oh         1 XVC      -0.662000
     15 HC1        211.8760   207.7800   251.9830 h2         1 XVC       0.011700
     16 HC2        209.6570   207.3180   252.5030 h1         1 XVC       0.048700
     17 HC3        210.4450   207.5940   255.4500 h1         1 XVC       0.072700
     18 HC4        211.4290   205.5200   253.4550 h1         1 XVC       0.041700
     19 HC5        213.2560   207.0470   255.3300 h1         1 XVC       0.108700
     20 HC62       213.4820   206.2780   252.3660 h1         1 XVC       0.066200
     21 HC61       214.1280   205.3610   253.7200 h1         1 XVC       0.066200
     22 HO2        208.4780   208.5920   254.1420 ho         1 XVC       0.510000
     23 HO3        209.4170   205.3920   255.3200 ho         1 XVC       0.515000
     24 HO4        212.2240   204.3860   255.2150 ho         1 XVC       0.514000
     25 H2         210.5640   209.9890   252.8800 ho         1 XVC       0.514000
@<TRIPOS>BOND
     1     1     2 1   
     2     1    13 1   
     3     1    14 1   
     4     1    15 1   
     5     2     3 1   
     6     2    10 1   
     7     2    16 1   
     8     3     4 1   
     9     3    11 1   
    10     3    17 1   
    11     4     5 1   
    12     4    12 1   
    13     4    18 1   
    14     5     6 1   
    15     5    13 1   
    16     5    19 1   
    17     6     7 1   
    18     6    20 1   
    19     6    21 1   
    20     7     8 1   
    21     8     9 3   
    22    10    22 1   
    23    11    23 1   
    24    12    24 1   
    25    14    25 1   
@<TRIPOS>SUBSTRUCTURE
     1 XVC         1 TEMP              0 ****  ****    0 ROOT
