@<TRIPOS>MOLECULE
XVC
   25    25     1     0     0
SMALL
abcg2


@<TRIPOS>ATOM
      1 C1         211.3910   208.2880   252.8460 c6         1 XVC       0.398300
      2 C2         210.0540   207.7750   253.4060 c6         1 XVC       0.165300
      3 C3         210.3340   206.7910   254.5450 c6         1 XVC       0.093300
      4 C4         211.6180   206.0150   254.2650 c6         1 XVC       0.117300
      5 C5         212.7860   207.0110   254.2740 c6         1 XVC       0.150300
      6 C6         213.9590   206.5140   253.4380 c3         1 XVC       0.137800
      7 N1         215.1060   207.4170   253.5290 n2         1 XVC      -0.428200
      8 N2         215.0520   208.4340   252.8640 n1         1 XVC       0.240000
      9 N3         215.1180   209.3940   252.2820 n1         1 XVC      -0.075000
     10 O2         209.2600   208.8510   253.8310 oh         1 XVC      -0.679000
     11 O3         209.2130   205.9460   254.6720 oh         1 XVC      -0.727000
     12 O4         211.8930   205.0460   255.2470 oh         1 XVC      -0.713000
     13 O5         212.3780   208.3000   253.8610 os         1 XVC      -0.486000
     14 O1         211.2460   209.5650   252.3610 oh         1 XVC      -0.662000
     15 HC1        211.7060   207.5960   252.0490 h2         1 XVC       0.011700
     16 HC2        209.5600   207.2190   252.5950 h1         1 XVC       0.048700
     17 HC3        210.4820   207.3730   255.4660 h1         1 XVC       0.072700
     18 HC4        211.5350   205.5380   253.2750 h1         1 XVC       0.041700
     19 HC5        213.1180   207.1240   255.3110 h1         1 XVC       0.108700
     20 HC62       213.6610   206.3610   252.3950 h1         1 XVC       0.066200
     21 HC61       214.2940   205.5530   253.8240 h1         1 XVC       0.066200
     22 HO2        208.4320   208.4900   254.1650 ho         1 XVC       0.510000
     23 HO3        209.1850   205.6020   255.5700 ho         1 XVC       0.515000
     24 HO4        211.3390   204.2760   255.0830 ho         1 XVC       0.514000
     25 H2         212.0020   209.7720   251.8000 ho         1 XVC       0.514000
@<TRIPOS>BOND
     1     1     2 1   
     2     1    13 1   
     3     1    14 1   
     4     1    15 1   
     5     2     3 1   
     6     2    10 1   
     7     2    16 1   
     8     3     4 1   
     9     3    11 1   
    10     3    17 1   
    11     4     5 1   
    12     4    12 1   
    13     4    18 1   
    14     5     6 1   
    15     5    13 1   
    16     5    19 1   
    17     6     7 1   
    18     6    20 1   
    19     6    21 1   
    20     7     8 1   
    21     8     9 3   
    22    10    22 1   
    23    11    23 1   
    24    12    24 1   
    25    14    25 1   
@<TRIPOS>SUBSTRUCTURE
     1 XVC         1 TEMP              0 ****  ****    0 ROOT
