@<TRIPOS>MOLECULE
XVD
   30    32     1     0     0
SMALL
abcg2


@<TRIPOS>ATOM
      1 N1         245.6470   239.2020   142.4030 nc         1 XVD      -0.661100
      2 C4         239.3470   241.3100   146.5020 ca         1 XVD      -0.107000
      3 C5         240.4850   240.8220   145.8850 ca         1 XVD       0.109100
      4 C6         240.9390   241.2870   144.6510 cp         1 XVD      -0.009000
      5 C7         242.1600   240.7340   144.0220 cp         1 XVD      -0.050000
      6 C8         243.4030   240.9500   144.6090 ca         1 XVD      -0.068000
      7 C10        244.4010   239.6340   142.8000 ca         1 XVD       0.111400
      8 C13        246.4540   239.6800   143.3040 cd         1 XVD       0.637100
      9 C1         240.1790   242.2950   144.0560 ca         1 XVD       0.130000
     10 C11        243.1530   239.4280   142.2230 ca         1 XVD      -0.066000
     11 C12        242.0470   239.9830   142.8440 ca         1 XVD      -0.094000
     12 C14        240.9370   238.5880   146.4650 c3         1 XVD       0.517000
     13 C2         239.0280   242.7980   144.6430 ca         1 XVD      -0.097000
     14 C3         238.6150   242.3000   145.8670 ca         1 XVD      -0.093000
     15 C9         244.5000   240.3920   143.9790 ca         1 XVD      -0.087200
     16 F1         239.8000   238.2940   147.0990 f          1 XVD      -0.106667
     17 F2         241.9160   237.9020   147.0340 f          1 XVD      -0.106667
     18 F3         240.7950   238.1690   145.2090 f          1 XVD      -0.106667
     19 N2         245.8450   240.4010   144.2740 na         1 XVD      -0.325600
     20 O1         247.7630   239.5300   143.3520 oh         1 XVD      -0.608600
     21 CL1        240.6900   242.9750   142.5500 cl         1 XVD      -0.178000
     22 H2         239.0440   240.9350   147.4700 ha         1 XVD       0.140000
     23 H3         243.5040   241.5340   145.5140 ha         1 XVD       0.127000
     24 H4         243.0460   238.8460   141.3170 ha         1 XVD       0.132000
     25 H5         241.0660   239.8270   142.4130 ha         1 XVD       0.121000
     26 H6         238.4670   243.5820   144.1530 ha         1 XVD       0.136000
     27 H7         237.7220   242.6930   146.3330 ha         1 XVD       0.127000
     28 H8         246.2940   240.8500   145.0580 hn         1 XVD       0.369000
     29 H1         248.0540   238.9900   142.6050 ho         1 XVD       0.511000
     30 O2         241.2590   239.8850   146.5530 os         1 XVD      -0.405100
@<TRIPOS>BOND
     1     1     7 1   
     2     1     8 2   
     3     2     3 ar  
     4     2    14 ar  
     5     2    22 1   
     6     3     4 ar  
     7     3    30 1   
     8     4     5 1   
     9     4     9 ar  
    10     5     6 ar  
    11     5    11 ar  
    12     6    15 ar  
    13     6    23 1   
    14     7    10 ar  
    15     7    15 ar  
    16     8    19 1   
    17     8    20 1   
    18     9    13 ar  
    19     9    21 1   
    20    10    11 ar  
    21    10    24 1   
    22    11    25 1   
    23    12    16 1   
    24    12    17 1   
    25    12    18 1   
    26    12    30 1   
    27    13    14 ar  
    28    13    26 1   
    29    14    27 1   
    30    15    19 1   
    31    19    28 1   
    32    20    29 1   
@<TRIPOS>SUBSTRUCTURE
     1 XVD         1 TEMP              0 ****  ****    0 ROOT
