@<TRIPOS>MOLECULE
XVD
   30    32     1     0     0
SMALL
No Charge or Current Charge


@<TRIPOS>ATOM
      1 N1         245.7140   239.2470   142.3510 nc         1 XVD      -0.661100
      2 C4         239.3820   241.3820   146.5620 ca         1 XVD      -0.107000
      3 C5         240.5330   240.8750   145.9380 ca         1 XVD       0.109100
      4 C6         240.9240   241.3000   144.6390 cp         1 XVD      -0.009000
      5 C7         242.1550   240.7520   143.9880 cp         1 XVD      -0.050000
      6 C8         243.4230   240.8860   144.6110 ca         1 XVD      -0.068000
      7 C10        244.4700   239.6890   142.7730 ca         1 XVD       0.111400
      8 C13        246.4890   239.6730   143.3480 cd         1 XVD       0.637100
      9 C1         240.1010   242.2600   143.9870 ca         1 XVD       0.130000
     10 C11        243.2360   239.5320   142.1280 ca         1 XVD      -0.066000
     11 C12        242.0810   240.0640   142.7420 ca         1 XVD      -0.094000
     12 C14        240.9390   238.5540   146.5570 c3         1 XVD       0.517000
     13 C2         238.9460   242.7620   144.6120 ca         1 XVD      -0.097000
     14 C3         238.5830   242.3250   145.8970 ca         1 XVD      -0.093000
     15 C9         244.5460   240.3450   143.9730 ca         1 XVD      -0.087200
     16 F1         239.7380   238.3350   147.1400 f          1 XVD      -0.106667
     17 F2         241.8450   237.7980   147.2140 f          1 XVD      -0.106667
     18 F3         240.8670   238.0840   145.2910 f          1 XVD      -0.106667
     19 N2         245.8540   240.3510   144.3770 na         1 XVD      -0.325600
     20 O1         247.7950   239.4500   143.3390 oh         1 XVD      -0.608600
     21 Cl1        240.5090   242.8950   142.3910 cl         1 XVD      -0.178000
     22 H2         239.1090   241.0440   147.5590 ha         1 XVD       0.140000
     23 H3         243.5200   241.3980   145.5660 ha         1 XVD       0.127000
     24 H4         243.1710   239.0090   141.1780 ha         1 XVD       0.132000
     25 H5         241.1170   239.9380   142.2550 ha         1 XVD       0.121000
     26 H6         238.3320   243.4990   144.0990 ha         1 XVD       0.136000
     27 H7         237.6900   242.7200   146.3760 ha         1 XVD       0.127000
     28 H8         246.2790   240.7410   145.2050 hn         1 XVD       0.369000
     29 H1         247.9060   238.9640   142.4980 ho         1 XVD       0.511000
     30 O2         241.3060   239.9440   146.5920 os         1 XVD      -0.405100
@<TRIPOS>BOND
     1     1     7 1   
     2     1     8 2   
     3     2     3 ar  
     4     2    14 ar  
     5     2    22 1   
     6     3     4 ar  
     7     3    30 1   
     8     4     5 1   
     9     4     9 ar  
    10     5     6 ar  
    11     5    11 ar  
    12     6    15 ar  
    13     6    23 1   
    14     7    10 ar  
    15     7    15 ar  
    16     8    19 1   
    17     8    20 1   
    18     9    13 ar  
    19     9    21 1   
    20    10    11 ar  
    21    10    24 1   
    22    11    25 1   
    23    12    16 1   
    24    12    17 1   
    25    12    18 1   
    26    12    30 1   
    27    13    14 ar  
    28    13    26 1   
    29    14    27 1   
    30    15    19 1   
    31    19    28 1   
    32    20    29 1   
@<TRIPOS>SUBSTRUCTURE
     1 XVD         1 TEMP              0 ****  ****    0 ROOT
