@<TRIPOS>MOLECULE
XVE
   41    42     1     0     0
SMALL
No Charge or Current Charge


@<TRIPOS>ATOM
      1 C91         -4.1870    -2.1040    -0.3440 c3         1 XVE       0.003600
      2 Cl          -4.7520    -3.7980    -0.7350 cl         1 XVE      -0.230000
      3 C1          -2.0940    -0.5390    -0.1270 c3         1 XVE       0.036700
      4 C2          -2.6730     0.7720    -0.7240 c3         1 XVE      -0.042100
      5 N3          -0.6170    -0.5850    -0.2380 ns         1 XVE      -0.490900
      6 C92         -2.7380    -1.8010    -0.7700 c          1 XVE       0.560100
      7 C5          -2.0570     2.0330    -0.1260 ca         1 XVE      -0.091300
      8 C6           0.2580    -0.1840     0.7320 c          1 XVE       0.642100
      9 O8          -2.1260    -2.5170    -1.5580 o          1 XVE      -0.469100
     10 C9          -1.0140     2.7040    -0.7960 ca         1 XVE      -0.106000
     11 C10         -2.5200     2.5320     1.1070 ca         1 XVE      -0.106000
     12 O11          1.5230    -0.2690     0.2410 os         1 XVE      -0.450100
     13 O12         -0.0500     0.1830     1.8550 o          1 XVE      -0.557000
     14 C14         -0.4390     3.8590    -0.2370 ca         1 XVE      -0.104500
     15 C15         -1.9460     3.6870     1.6650 ca         1 XVE      -0.104500
     16 C16          2.5950     0.1410     1.1030 c3         1 XVE       0.231900
     17 C17         -0.9050     4.3510     0.9940 ca         1 XVE      -0.104000
     18 C18          3.9060    -0.0050     0.3410 ca         1 XVE      -0.103300
     19 C19          4.3680     1.0410    -0.4820 ca         1 XVE      -0.083000
     20 C20          4.6660    -1.1870     0.4510 ca         1 XVE      -0.083000
     21 C21          5.5780     0.9080    -1.1860 ca         1 XVE      -0.116000
     22 C22          5.8760    -1.3180    -0.2530 ca         1 XVE      -0.116000
     23 C23          6.3330    -0.2710    -1.0710 ca         1 XVE      -0.097000
     24 H911        -4.8570    -1.3960    -0.8470 h1         1 XVE       0.088200
     25 H912        -4.2720    -1.9650     0.7400 h1         1 XVE       0.088200
     26 H1          -2.3550    -0.5670     0.9380 h1         1 XVE       0.070700
     27 H21C        -2.5240     0.7640    -1.8120 hc         1 XVE       0.066200
     28 H22C        -3.7600     0.7920    -0.5720 hc         1 XVE       0.066200
     29 H3          -0.1970    -0.8870    -1.1080 hn         1 XVE       0.343500
     30 H9          -0.6430     2.3280    -1.7460 ha         1 XVE       0.111000
     31 H10         -3.3220     2.0210     1.6360 ha         1 XVE       0.111000
     32 H14          0.3680     4.3710    -0.7570 ha         1 XVE       0.115500
     33 H15         -2.3070     4.0670     2.6190 ha         1 XVE       0.115500
     34 H161         2.4680     1.1870     1.4120 h1         1 XVE       0.058200
     35 H162         2.6240    -0.4770     2.0110 h1         1 XVE       0.058200
     36 H17         -0.4600     5.2440     1.4270 ha         1 XVE       0.116000
     37 H19          3.7870     1.9560    -0.5790 ha         1 XVE       0.115500
     38 H20          4.3190    -2.0030     1.0800 ha         1 XVE       0.115500
     39 H21          5.9290     1.7190    -1.8200 ha         1 XVE       0.114500
     40 H22          6.4590    -2.2330    -0.1640 ha         1 XVE       0.114500
     41 H23          7.2690    -0.3740    -1.6150 ha         1 XVE       0.113000
@<TRIPOS>BOND
     1     1     2 1   
     2     1     6 1   
     3     1    24 1   
     4     1    25 1   
     5     3     4 1   
     6     3     5 1   
     7     3     6 1   
     8     3    26 1   
     9     4     7 1   
    10     4    27 1   
    11     4    28 1   
    12     5     8 1   
    13     5    29 1   
    14     6     9 2   
    15     7    10 ar  
    16     7    11 ar  
    17     8    12 1   
    18     8    13 2   
    19    10    14 ar  
    20    10    30 1   
    21    11    15 ar  
    22    11    31 1   
    23    12    16 1   
    24    14    17 ar  
    25    14    32 1   
    26    15    17 ar  
    27    15    33 1   
    28    16    18 1   
    29    16    34 1   
    30    16    35 1   
    31    17    36 1   
    32    18    19 ar  
    33    18    20 ar  
    34    19    21 ar  
    35    19    37 1   
    36    20    22 ar  
    37    20    38 1   
    38    21    23 ar  
    39    21    39 1   
    40    22    23 ar  
    41    22    40 1   
    42    23    41 1   
@<TRIPOS>SUBSTRUCTURE
     1 XVE         1 TEMP              0 ****  ****    0 ROOT
