@<TRIPOS>MOLECULE
XVE
   41    42     1     0     0
SMALL
bcc


@<TRIPOS>ATOM
      1 C91         -3.4500    -1.9540     0.8930 c3         1 XVE      -0.073000
      2 CL          -4.2070    -3.5000     0.4750 cl         1 XVE      -0.153400
      3 C1          -1.9030    -0.1050     0.1000 c3         1 XVE       0.036700
      4 C2          -2.6630     0.8250    -0.8580 c3         1 XVE      -0.042100
      5 N3          -0.4910    -0.0230    -0.1440 ns         1 XVE      -0.557900
      6 C92         -2.4100    -1.5300    -0.1100 c          1 XVE       0.560100
      7 C5          -2.2890     2.2680    -0.6530 ca         1 XVE      -0.091300
      8 C6           0.3580    -0.7570     0.5970 c          1 XVE       0.758100
      9 O8          -2.0240    -2.2260    -1.0090 o          1 XVE      -0.469100
     10 C9          -1.4560     2.9280    -1.5510 ca         1 XVE      -0.124000
     11 C10         -2.7560     2.9630     0.4620 ca         1 XVE      -0.124000
     12 O11          1.6270    -0.5270     0.2660 os         1 XVE      -0.426900
     13 O12         -0.0030    -1.5330     1.4610 o          1 XVE      -0.606000
     14 C14         -1.0910     4.2520    -1.3410 ca         1 XVE      -0.122500
     15 C15         -2.3960     4.2860     0.6740 ca         1 XVE      -0.122500
     16 C16          2.6310    -1.2610     0.9800 c3         1 XVE       0.208700
     17 C17         -1.5590     4.9340    -0.2270 ca         1 XVE      -0.122000
     18 C18          3.9590    -0.7800     0.4800 ca         1 XVE      -0.103300
     19 C19          4.6000     0.2880     1.1000 ca         1 XVE      -0.101000
     20 C20          4.5520    -1.3750    -0.6300 ca         1 XVE      -0.101000
     21 C21          5.8170     0.7540     0.6220 ca         1 XVE      -0.134000
     22 C22          5.7690    -0.9120    -1.1110 ca         1 XVE      -0.134000
     23 C23          6.4030     0.1540    -0.4860 ca         1 XVE      -0.115000
     24 H911        -4.2270    -1.1940     0.9920 h1         1 XVE       0.088200
     25 H912        -2.9650    -2.0500     1.8670 h1         1 XVE       0.088200
     26 H1          -2.1270     0.2030     1.1270 h1         1 XVE       0.070700
     27 H21C        -2.4620     0.5190    -1.8880 hc         1 XVE       0.066200
     28 H22C        -3.7340     0.6930    -0.6930 hc         1 XVE       0.066200
     29 H3          -0.1370     0.5920    -0.8600 hn         1 XVE       0.343500
     30 H9          -1.0930     2.4070    -2.4300 ha         1 XVE       0.129000
     31 H10         -3.4130     2.4680     1.1670 ha         1 XVE       0.129000
     32 H14         -0.4420     4.7500    -2.0500 ha         1 XVE       0.133500
     33 H15         -2.7730     4.8130     1.5410 ha         1 XVE       0.133500
     34 H161         2.5330    -1.0820     2.0530 h1         1 XVE       0.058200
     35 H162         2.5090    -2.3310     0.7990 h1         1 XVE       0.058200
     36 H17         -1.2770     5.9660    -0.0610 ha         1 XVE       0.134000
     37 H19          4.1480     0.7560     1.9660 ha         1 XVE       0.133500
     38 H20          4.0630    -2.2090    -1.1190 ha         1 XVE       0.133500
     39 H21          6.3100     1.5810     1.1150 ha         1 XVE       0.132500
     40 H22          6.2240    -1.3850    -1.9710 ha         1 XVE       0.132500
     41 H23          7.3540     0.5140    -0.8580 ha         1 XVE       0.131000
@<TRIPOS>BOND
     1     1     2 1   
     2     1     6 1   
     3     1    24 1   
     4     1    25 1   
     5     3     4 1   
     6     3     5 1   
     7     3     6 1   
     8     3    26 1   
     9     4     7 1   
    10     4    27 1   
    11     4    28 1   
    12     5     8 1   
    13     5    29 1   
    14     6     9 2   
    15     7    10 ar  
    16     7    11 ar  
    17     8    12 1   
    18     8    13 2   
    19    10    14 ar  
    20    10    30 1   
    21    11    15 ar  
    22    11    31 1   
    23    12    16 1   
    24    14    17 ar  
    25    14    32 1   
    26    15    17 ar  
    27    15    33 1   
    28    16    18 1   
    29    16    34 1   
    30    16    35 1   
    31    17    36 1   
    32    18    19 ar  
    33    18    20 ar  
    34    19    21 ar  
    35    19    37 1   
    36    20    22 ar  
    37    20    38 1   
    38    21    23 ar  
    39    21    39 1   
    40    22    23 ar  
    41    22    40 1   
    42    23    41 1   
@<TRIPOS>SUBSTRUCTURE
     1 XVE         1 TEMP              0 ****  ****    0 ROOT
