@<TRIPOS>MOLECULE
XVF
   52    53     1     0     0
SMALL
abcg2


@<TRIPOS>ATOM
      1 C11         -8.8440     1.0480   -38.6900 ca         1 XVF      -0.085300
      2 C12         -8.0730     0.8650   -37.5430 ca         1 XVF      -0.098000
      3 C14         -6.0410     1.3100   -38.7450 ca         1 XVF      -0.127000
      4 C16         -8.1720     1.3650   -39.8630 ca         1 XVF       0.124000
      5 C02        -14.2100    -0.8640   -38.0320 ca         1 XVF       0.591900
      6 C03        -14.9710    -0.8770   -39.2160 ca         1 XVF      -0.226000
      7 C04        -14.3250    -0.7940   -40.4350 ca         1 XVF      -0.000300
      8 C05        -12.9260    -0.6950   -40.4320 ca         1 XVF      -0.209000
      9 C06        -12.2480    -0.6830   -39.2240 ca         1 XVF       0.391300
     10 C08        -10.7520    -0.5310   -39.1740 c3         1 XVF      -0.122700
     11 C09        -10.3370     0.8740   -38.6900 c3         1 XVF      -0.025100
     12 C13         -6.6840     0.9920   -37.5480 ca         1 XVF      -0.065300
     13 C15         -6.7950     1.4960   -39.8870 ca         1 XVF       0.133000
     14 C17         -5.8870     0.7540   -36.2910 c3         1 XVF      -0.033100
     15 C18         -5.7020    -0.7430   -36.0250 c3         1 XVF       0.172800
     16 C20         -5.1850    -2.4650   -34.4310 c3         1 XVF       0.168300
     17 C21         -4.7310    -2.8290   -33.0240 c3         1 XVF      -0.108600
     18 C22         -3.7160    -0.4990   -34.6000 c3         1 XVF       0.168300
     19 C23         -2.6570    -1.0610   -35.5550 c3         1 XVF      -0.108600
     20 F15         -6.1940     1.8140   -41.0560 f          1 XVF      -0.167000
     21 F16         -8.8640     1.5620   -41.0100 f          1 XVF      -0.168000
     22 N01        -12.8780    -0.7670   -38.0390 nb         1 XVF      -0.750000
     23 N02        -14.8180    -1.0030   -36.8050 nv         1 XVF      -1.052900
     24 N19         -5.0760    -1.0360   -34.7380 n3         1 XVF      -0.732600
     25 H1          -8.5800     0.6200   -36.6170 ha         1 XVF       0.126000
     26 H2          -4.9660     1.4220   -38.7950 ha         1 XVF       0.134000
     27 H3         -16.0500    -0.9550   -39.1620 ha         1 XVF       0.119000
     28 H4         -12.3770    -0.6230   -41.3620 ha         1 XVF       0.124000
     29 H5         -14.8400     0.0620   -42.3360 hc         1 XVF       0.047367
     30 H6         -14.8260    -1.6950   -42.3150 hc         1 XVF       0.047367
     31 H7         -16.1640    -0.8210   -41.5550 hc         1 XVF       0.047367
     32 H8         -10.3330    -1.2750   -38.4920 hc         1 XVF       0.059200
     33 H9         -10.3320    -0.7130   -40.1640 hc         1 XVF       0.059200
     34 H10        -10.8010     1.6210   -39.3370 hc         1 XVF       0.063200
     35 H11        -10.7170     1.0300   -37.6810 hc         1 XVF       0.063200
     36 H12         -4.9190     1.2470   -36.3850 hc         1 XVF       0.058200
     37 H13         -6.4010     1.1980   -35.4350 hc         1 XVF       0.058200
     38 H14         -6.6880    -1.2140   -36.0170 h1         1 XVF       0.034200
     39 H15         -5.1530    -1.1900   -36.8700 h1         1 XVF       0.034200
     40 H16         -6.2400    -2.7280   -34.5400 h1         1 XVF       0.038950
     41 H17         -4.6370    -3.0830   -35.1620 h1         1 XVF       0.038950
     42 H18         -4.9920    -3.8670   -32.8130 hc         1 XVF       0.037200
     43 H19         -3.6520    -2.7280   -32.8980 hc         1 XVF       0.037200
     44 H20         -5.2240    -2.1940   -32.2830 hc         1 XVF       0.037200
     45 H21         -3.3960    -0.6690   -33.5710 h1         1 XVF       0.038950
     46 H22         -3.7700     0.5830   -34.7210 h1         1 XVF       0.038950
     47 H23         -1.6930    -0.5920   -35.3480 hc         1 XVF       0.037200
     48 H24         -2.5370    -2.1390   -35.4360 hc         1 XVF       0.037200
     49 H25         -2.9070    -0.8610   -36.5990 hc         1 XVF       0.037200
     50 H26        -14.2680    -0.7040   -36.0140 hn         1 XVF       0.466000
     51 H27        -15.7940    -0.7570   -36.7480 hn         1 XVF       0.466000
     52 C07        -15.0880    -0.8110   -41.7280 c3         1 XVF      -0.053800
@<TRIPOS>BOND
     1     1     2 ar  
     2     1     4 ar  
     3     1    11 1   
     4     2    12 ar  
     5     2    25 1   
     6     3    12 ar  
     7     3    13 ar  
     8     3    26 1   
     9     4    13 ar  
    10     4    21 1   
    11     5     6 ar  
    12     5    22 ar  
    13     5    23 1   
    14     6     7 ar  
    15     6    27 1   
    16     7     8 ar  
    17     7    52 1   
    18     8     9 ar  
    19     8    28 1   
    20     9    10 1   
    21     9    22 ar  
    22    10    11 1   
    23    10    32 1   
    24    10    33 1   
    25    11    34 1   
    26    11    35 1   
    27    12    14 1   
    28    13    20 1   
    29    14    15 1   
    30    14    36 1   
    31    14    37 1   
    32    15    24 1   
    33    15    38 1   
    34    15    39 1   
    35    16    17 1   
    36    16    24 1   
    37    16    40 1   
    38    16    41 1   
    39    17    42 1   
    40    17    43 1   
    41    17    44 1   
    42    18    19 1   
    43    18    24 1   
    44    18    45 1   
    45    18    46 1   
    46    19    47 1   
    47    19    48 1   
    48    19    49 1   
    49    23    50 1   
    50    23    51 1   
    51    29    52 1   
    52    30    52 1   
    53    31    52 1   
@<TRIPOS>SUBSTRUCTURE
     1 XVF         1 TEMP              0 ****  ****    0 ROOT
