@<TRIPOS>MOLECULE
XVF
   52    53     1     0     0
SMALL
No Charge or Current Charge


@<TRIPOS>ATOM
      1 C11         -8.8260     0.8260   -38.9170 ca         1 XVF      -0.085300
      2 C12         -8.1240     0.7250   -37.6990 ca         1 XVF      -0.098000
      3 C14         -6.0030     0.9150   -38.8770 ca         1 XVF      -0.127000
      4 C16         -8.1000     0.9690   -40.1190 ca         1 XVF       0.124000
      5 C02        -14.3360    -1.1960   -38.1280 ca         1 XVF       0.591900
      6 C03        -15.1350    -0.8440   -39.2180 ca         1 XVF      -0.226000
      7 C04        -14.5050    -0.4010   -40.3910 ca         1 XVF      -0.000300
      8 C05        -13.1020    -0.3440   -40.3870 ca         1 XVF      -0.209000
      9 C06        -12.3950    -0.7220   -39.2290 ca         1 XVF       0.391300
     10 C08        -10.8760    -0.6600   -39.1920 c3         1 XVF      -0.122700
     11 C09        -10.3510     0.7660   -38.9190 c3         1 XVF      -0.025100
     12 C13         -6.7160     0.7720   -37.6720 ca         1 XVF      -0.065300
     13 C15         -6.6930     1.0130   -40.0950 ca         1 XVF       0.133000
     14 C17         -5.9690     0.6540   -36.3500 c3         1 XVF      -0.033100
     15 C18         -5.5910    -0.8100   -36.0320 c3         1 XVF       0.172800
     16 C20         -4.9100    -2.4970   -34.3710 c3         1 XVF       0.168300
     17 C21         -4.5600    -2.8300   -32.9070 c3         1 XVF      -0.108600
     18 C22         -3.7730    -0.2610   -34.3880 c3         1 XVF       0.168300
     19 C23         -2.5480    -0.6050   -35.2640 c3         1 XVF      -0.108600
     20 F15         -5.9950     1.1480   -41.2460 f          1 XVF      -0.167000
     21 F16         -8.7540     1.0590   -41.3030 f          1 XVF      -0.168000
     22 N01        -13.0120    -1.1440   -38.1020 nb         1 XVF      -0.750000
     23 N02        -14.8250    -1.6210   -36.9610 nv         1 XVF      -1.052900
     24 N19         -5.0110    -1.0450   -34.6790 n3         1 XVF      -0.732600
     25 H1          -8.6750     0.6070   -36.7680 ha         1 XVF       0.126000
     26 H2          -4.9160     0.9480   -38.8730 ha         1 XVF       0.134000
     27 H3         -16.2160    -0.9150   -39.1550 ha         1 XVF       0.119000
     28 H4         -12.5600    -0.0100   -41.2670 ha         1 XVF       0.124000
     29 H5         -14.8050     0.7900   -42.1830 hc         1 XVF       0.047367
     30 H6         -15.4420    -0.8600   -42.2900 hc         1 XVF       0.047367
     31 H7         -16.3020     0.3660   -41.3430 hc         1 XVF       0.047367
     32 H8         -10.4820    -1.3390   -38.4270 hc         1 XVF       0.059200
     33 H9         -10.4740    -1.0130   -40.1490 hc         1 XVF       0.059200
     34 H10        -10.7570     1.4540   -39.6720 hc         1 XVF       0.063200
     35 H11        -10.7460     1.1120   -37.9560 hc         1 XVF       0.063200
     36 H12         -5.0640     1.2710   -36.3860 hc         1 XVF       0.058200
     37 H13         -6.5830     1.0500   -35.5310 hc         1 XVF       0.058200
     38 H14         -6.5100    -1.4050   -36.1300 h1         1 XVF       0.034200
     39 H15         -4.9040    -1.1720   -36.8080 h1         1 XVF       0.034200
     40 H16         -5.8760    -2.9760   -34.5850 h1         1 XVF       0.038950
     41 H17         -4.1720    -2.9780   -35.0280 h1         1 XVF       0.038950
     42 H18         -4.6490    -3.9090   -32.7360 hc         1 XVF       0.037200
     43 H19         -3.5310    -2.5390   -32.6660 hc         1 XVF       0.037200
     44 H20         -5.2430    -2.3180   -32.2190 hc         1 XVF       0.037200
     45 H21         -3.4860    -0.3920   -33.3370 h1         1 XVF       0.038950
     46 H22         -3.9760     0.8120   -34.4970 h1         1 XVF       0.038950
     47 H23         -1.6950     0.0180   -34.9720 hc         1 XVF       0.037200
     48 H24         -2.2550    -1.6540   -35.1410 hc         1 XVF       0.037200
     49 H25         -2.7520    -0.4190   -36.3240 hc         1 XVF       0.037200
     50 H26        -14.1610    -1.6140   -36.1960 hn         1 XVF       0.466000
     51 H27        -15.7830    -1.3810   -36.7350 hn         1 XVF       0.466000
     52 C07        -15.3080    -0.0040   -41.6180 c3         1 XVF      -0.053800
@<TRIPOS>BOND
     1     1     2 ar  
     2     1     4 ar  
     3     1    11 1   
     4     2    12 ar  
     5     2    25 1   
     6     3    12 ar  
     7     3    13 ar  
     8     3    26 1   
     9     4    13 ar  
    10     4    21 1   
    11     5     6 ar  
    12     5    22 ar  
    13     5    23 1   
    14     6     7 ar  
    15     6    27 1   
    16     7     8 ar  
    17     7    52 1   
    18     8     9 ar  
    19     8    28 1   
    20     9    10 1   
    21     9    22 ar  
    22    10    11 1   
    23    10    32 1   
    24    10    33 1   
    25    11    34 1   
    26    11    35 1   
    27    12    14 1   
    28    13    20 1   
    29    14    15 1   
    30    14    36 1   
    31    14    37 1   
    32    15    24 1   
    33    15    38 1   
    34    15    39 1   
    35    16    17 1   
    36    16    24 1   
    37    16    40 1   
    38    16    41 1   
    39    17    42 1   
    40    17    43 1   
    41    17    44 1   
    42    18    19 1   
    43    18    24 1   
    44    18    45 1   
    45    18    46 1   
    46    19    47 1   
    47    19    48 1   
    48    19    49 1   
    49    23    50 1   
    50    23    51 1   
    51    29    52 1   
    52    30    52 1   
    53    31    52 1   
@<TRIPOS>SUBSTRUCTURE
     1 XVF         1 TEMP              0 ****  ****    0 ROOT
