@<TRIPOS>MOLECULE
XVI
   54    57     1     0     0
SMALL
No Charge or Current Charge


@<TRIPOS>ATOM
      1 C1         -17.9730     8.9550   -93.7530 c3         1 XVI       0.148900
      2 C3         -17.9830     6.7780   -94.9480 ca         1 XVI       0.193100
      3 C7         -17.9980     4.6850   -96.1940 ca         1 XVI       0.208100
      4 C9         -18.1540     2.4870   -97.3360 c3         1 XVI       0.402300
      5 C12        -18.6440     5.8910   -95.8320 ca         1 XVI      -0.209600
      6 C13        -20.0090     6.2130   -96.4010 c          1 XVI       0.650700
      7 C16        -22.2110     7.2970   -95.9290 cx         1 XVI       0.032700
      8 C19        -23.3570     6.3560   -95.6210 cx         1 XVI       0.149300
      9 C22        -14.7520     4.8900   -94.2620 cc         1 XVI      -0.262800
     10 N25        -13.0400     4.5560   -92.9660 na         1 XVI       0.318400
     11 C27        -12.7390     5.2820   -90.7170 cc         1 XVI      -0.129300
     12 C30        -14.2710     5.1730   -93.0100 cd         1 XVI      -0.063000
     13 C31        -11.9640     5.4200   -89.3980 c3         1 XVI       0.080400
     14 C32        -11.6480     6.9200   -89.1430 c3         1 XVI      -0.086600
     15 C33        -10.6130     4.6470   -89.4220 c3         1 XVI      -0.086600
     16 C34        -12.7510     4.8910   -88.2590 c1         1 XVI       0.297900
     17 O2         -18.5750     7.9880   -94.6330 os         1 XVI      -0.336100
     18 C4         -16.7110     6.4480   -94.4350 ca         1 XVI      -0.227000
     19 C5         -16.0820     5.2410   -94.7710 ca         1 XVI       0.092200
     20 C6         -16.7210     4.3820   -95.6750 ca         1 XVI      -0.215000
     21 O8         -18.6520     3.8010   -97.0320 os         1 XVI      -0.381100
     22 F10        -18.1970     1.6900   -96.2430 f          1 XVI      -0.109500
     23 F11        -18.9370     1.8970   -98.2670 f          1 XVI      -0.109500
     24 O14        -20.3440     5.9230   -97.5430 o          1 XVI      -0.574100
     25 N15        -20.8680     6.9070   -95.5780 ns         1 XVI      -0.470900
     26 C18        -23.1610     7.6060   -94.7980 cx         1 XVI      -0.173400
     27 F21        -23.0990     5.1470   -95.0420 f          1 XVI      -0.220000
     28 C23        -13.7840     4.0120   -94.8210 cc         1 XVI       0.406500
     29 N24        -12.7090     3.8020   -94.0710 nd         1 XVI      -0.575100
     30 C26        -12.2300     4.5920   -91.8310 cd         1 XVI      -0.058000
     31 C28        -14.0630     5.8930   -90.7730 cc         1 XVI      -0.078000
     32 C29        -14.8550     5.8420   -91.8980 cd         1 XVI      -0.099000
     33 N35        -13.3620     4.4970   -87.3480 n1         1 XVI      -0.450000
     34 H1         -18.6310     9.8260   -93.6400 h1         1 XVI       0.045033
     35 H2         -17.8050     8.5250   -92.7570 h1         1 XVI       0.045033
     36 H3         -17.0140     9.3060   -94.1550 h1         1 XVI       0.045033
     37 H4         -17.1290     2.5290   -97.7160 h3         1 XVI       0.062700
     38 H5         -22.2800     7.8980   -96.8380 h1         1 XVI       0.095700
     39 H6         -24.1950     6.3090   -96.3170 h1         1 XVI       0.094700
     40 H7         -11.0540     7.0510   -88.2310 hc         1 XVI       0.050867
     41 H8         -11.0770     7.3400   -89.9800 hc         1 XVI       0.050867
     42 H9         -12.5630     7.5150   -89.0310 hc         1 XVI       0.050867
     43 H10        -10.0800     4.7530   -88.4680 hc         1 XVI       0.050867
     44 H11        -10.7710     3.5750   -89.5970 hc         1 XVI       0.050867
     45 H12         -9.9520     5.0320   -90.2080 hc         1 XVI       0.050867
     46 H13        -16.1720     7.1560   -93.8200 ha         1 XVI       0.124000
     47 H14        -16.2220     3.4590   -95.9450 ha         1 XVI       0.135000
     48 H15        -20.4860     7.1750   -94.6780 hn         1 XVI       0.325500
     49 H16        -22.8050     7.4850   -93.7790 hc         1 XVI       0.086200
     50 H17        -23.8700     8.4170   -94.9410 hc         1 XVI       0.086200
     51 H18        -13.8370     3.5190   -95.7830 h4         1 XVI       0.051800
     52 H19        -11.2800     4.0820   -91.9020 h4         1 XVI       0.166000
     53 H20        -14.4500     6.3990   -89.8940 ha         1 XVI       0.130000
     54 H21        -15.8520     6.2660   -91.8990 ha         1 XVI       0.138000
@<TRIPOS>BOND
     1     1    17 1   
     2     1    34 1   
     3     1    35 1   
     4     1    36 1   
     5     2     5 ar  
     6     2    17 1   
     7     2    18 ar  
     8     3     5 ar  
     9     3    20 ar  
    10     3    21 1   
    11     4    21 1   
    12     4    22 1   
    13     4    23 1   
    14     4    37 1   
    15     5     6 1   
    16     6    24 2   
    17     6    25 1   
    18     7     8 1   
    19     7    25 1   
    20     7    26 1   
    21     7    38 1   
    22     8    26 1   
    23     8    27 1   
    24     8    39 1   
    25     9    12 2   
    26     9    19 1   
    27     9    28 1   
    28    10    12 1   
    29    10    29 1   
    30    10    30 1   
    31    11    13 1   
    32    11    30 2   
    33    11    31 1   
    34    12    32 1   
    35    13    14 1   
    36    13    15 1   
    37    13    16 1   
    38    14    40 1   
    39    14    41 1   
    40    14    42 1   
    41    15    43 1   
    42    15    44 1   
    43    15    45 1   
    44    16    33 3   
    45    18    19 ar  
    46    18    46 1   
    47    19    20 ar  
    48    20    47 1   
    49    25    48 1   
    50    26    49 1   
    51    26    50 1   
    52    28    29 2   
    53    28    51 1   
    54    30    52 1   
    55    31    32 2   
    56    31    53 1   
    57    32    54 1   
@<TRIPOS>SUBSTRUCTURE
     1 XVI         1 TEMP              0 ****  ****    0 ROOT
