@<TRIPOS>MOLECULE
XVI
   54    57     1     0     0
SMALL
abcg2


@<TRIPOS>ATOM
      1 C1         -17.6870     9.1510   -93.9930 c3         1 XVI       0.148900
      2 C3         -17.9210     6.9550   -94.8720 ca         1 XVI       0.193100
      3 C7         -18.2290     4.7850   -95.8330 ca         1 XVI       0.208100
      4 C9         -18.4900     3.0530   -97.4100 c3         1 XVI       0.402300
      5 C12        -18.7010     6.0720   -95.6230 ca         1 XVI      -0.209600
      6 C13        -19.9870     6.5220   -96.2510 c          1 XVI       0.650700
      7 C16        -22.2930     7.0910   -95.8080 cx         1 XVI       0.032700
      8 C19        -23.2010     6.0980   -96.4560 cx         1 XVI       0.149300
      9 C22        -15.0090     4.7730   -93.9500 cc         1 XVI      -0.262800
     10 N25        -13.2460     4.4300   -92.6660 na         1 XVI       0.318400
     11 C27        -12.6520     5.3360   -90.5840 cc         1 XVI      -0.129300
     12 C30        -14.4130     5.1530   -92.7450 cd         1 XVI      -0.063000
     13 C31        -11.6940     5.4900   -89.4120 c3         1 XVI       0.080400
     14 C32        -11.1360     6.9230   -89.3740 c3         1 XVI      -0.086600
     15 C33        -10.5360     4.4870   -89.4340 c3         1 XVI      -0.086600
     16 C34        -12.4630     5.2520   -88.1820 c1         1 XVI       0.297900
     17 O2         -18.4150     8.1950   -94.7430 os         1 XVI      -0.336100
     18 C4         -16.7040     6.5400   -94.3420 ca         1 XVI      -0.227000
     19 C5         -16.2660     5.2290   -94.5300 ca         1 XVI       0.092200
     20 C6         -17.0390     4.3420   -95.2800 ca         1 XVI      -0.215000
     21 O8         -19.0450     3.9690   -96.5710 os         1 XVI      -0.381100
     22 F10        -18.4430     1.8410   -96.8090 f          1 XVI      -0.109500
     23 F11        -19.3260     2.9250   -98.4530 f          1 XVI      -0.109500
     24 O14        -20.0830     6.7400   -97.4450 o          1 XVI      -0.574100
     25 N15        -21.0090     6.6540   -95.3870 ns         1 XVI      -0.470900
     26 C18        -23.4830     6.5410   -95.0700 cx         1 XVI      -0.173400
     27 F21        -22.7140     4.8300   -96.6260 f          1 XVI      -0.220000
     28 C23        -14.1170     3.8320   -94.4820 cc         1 XVI       0.406500
     29 N24        -13.0590     3.6310   -93.7180 nd         1 XVI      -0.575100
     30 C26        -12.3780     4.5070   -91.6240 cd         1 XVI      -0.058000
     31 C28        -13.8600     6.0910   -90.6140 cc         1 XVI      -0.078000
     32 C29        -14.7240     6.0020   -91.6610 cd         1 XVI      -0.099000
     33 N35        -13.0540     5.0680   -87.2130 n1         1 XVI      -0.450000
     34 H1         -18.2820    10.0610   -94.0010 h1         1 XVI       0.045033
     35 H2         -17.5430     8.8310   -92.9590 h1         1 XVI       0.045033
     36 H3         -16.7130     9.3610   -94.4410 h1         1 XVI       0.045033
     37 H4         -17.4900     3.3190   -97.7610 h3         1 XVI       0.062700
     38 H5         -22.3510     8.1140   -96.1660 h1         1 XVI       0.095700
     39 H6         -23.8360     6.4070   -97.2770 h1         1 XVI       0.094700
     40 H7         -10.4660     7.0490   -88.5240 hc         1 XVI       0.050867
     41 H8         -10.5730     7.1050   -90.2880 hc         1 XVI       0.050867
     42 H9         -11.9260     7.6680   -89.3000 hc         1 XVI       0.050867
     43 H10         -9.9150     4.6200   -88.5500 hc         1 XVI       0.050867
     44 H11        -10.8880     3.4570   -89.4540 hc         1 XVI       0.050867
     45 H12         -9.9070     4.6620   -90.3070 hc         1 XVI       0.050867
     46 H13        -16.0730     7.2380   -93.8100 ha         1 XVI       0.124000
     47 H14        -16.7240     3.3120   -95.3820 ha         1 XVI       0.135000
     48 H15        -20.8480     6.4890   -94.4050 hn         1 XVI       0.325500
     49 H16        -23.2830     5.8390   -94.2690 hc         1 XVI       0.086200
     50 H17        -24.3250     7.1980   -94.8980 hc         1 XVI       0.086200
     51 H18        -14.2070     3.3040   -95.4210 h4         1 XVI       0.051800
     52 H19        -11.5060     3.8770   -91.7060 h4         1 XVI       0.166000
     53 H20        -14.1040     6.7440   -89.7850 ha         1 XVI       0.130000
     54 H21        -15.6460     6.5650   -91.6650 ha         1 XVI       0.138000
@<TRIPOS>BOND
     1     1    17 1   
     2     1    34 1   
     3     1    35 1   
     4     1    36 1   
     5     2     5 ar  
     6     2    17 1   
     7     2    18 ar  
     8     3     5 ar  
     9     3    20 ar  
    10     3    21 1   
    11     4    21 1   
    12     4    22 1   
    13     4    23 1   
    14     4    37 1   
    15     5     6 1   
    16     6    24 2   
    17     6    25 1   
    18     7     8 1   
    19     7    25 1   
    20     7    26 1   
    21     7    38 1   
    22     8    26 1   
    23     8    27 1   
    24     8    39 1   
    25     9    12 2   
    26     9    19 1   
    27     9    28 1   
    28    10    12 1   
    29    10    29 1   
    30    10    30 1   
    31    11    13 1   
    32    11    30 2   
    33    11    31 1   
    34    12    32 1   
    35    13    14 1   
    36    13    15 1   
    37    13    16 1   
    38    14    40 1   
    39    14    41 1   
    40    14    42 1   
    41    15    43 1   
    42    15    44 1   
    43    15    45 1   
    44    16    33 3   
    45    18    19 ar  
    46    18    46 1   
    47    19    20 ar  
    48    20    47 1   
    49    25    48 1   
    50    26    49 1   
    51    26    50 1   
    52    28    29 2   
    53    28    51 1   
    54    30    52 1   
    55    31    32 2   
    56    31    53 1   
    57    32    54 1   
@<TRIPOS>SUBSTRUCTURE
     1 XVI         1 TEMP              0 ****  ****    0 ROOT
