@<TRIPOS>MOLECULE
XVJ
   99   103     1     0     0
SMALL
No Charge or Current Charge


@<TRIPOS>ATOM
      1 C10          5.5960     0.5960   -14.4330 c3         1 XVJ       0.093700
      2 C13          0.7320    -2.3000   -12.3590 c5         1 XVJ       0.153600
      3 C15          1.6760    -2.9150   -10.3430 c5         1 XVJ       0.371300
      4 C17          3.9760    -2.9840   -10.5750 c5         1 XVJ       0.156600
      5 C20          7.3040    -2.0110   -12.5950 ca         1 XVJ      -0.069500
      6 C21          7.4010    -2.5390   -11.2970 ca         1 XVJ      -0.163500
      7 C22          7.3210    -1.6960   -10.1780 ca         1 XVJ       0.130100
      8 C24          7.0710     0.2230   -11.6620 ca         1 XVJ      -0.069500
      9 C26          3.6440     4.1620   -16.5740 c3         1 XVJ      -0.060700
     10 C28          2.7510     3.8680   -15.3410 c3         1 XVJ      -0.090100
     11 C01          9.8660     5.8710   -18.0230 ca         1 XVJ       0.132400
     12 C02          8.8570     6.6610   -17.5120 ca         1 XVJ      -0.216000
     13 C03          8.0350     6.2340   -16.4590 ca         1 XVJ       0.032000
     14 C04          8.2490     4.9490   -15.9160 ca         1 XVJ      -0.294500
     15 C05          9.2880     4.1330   -16.4270 ca         1 XVJ      -0.032000
     16 C06         10.0960     4.5960   -17.4840 ca         1 XVJ      -0.070000
     17 C08          6.2430     2.4290   -16.1780 c3         1 XVJ       0.215800
     18 C09          5.3690     1.1760   -15.8640 c3         1 XVJ       0.152300
     19 C11          3.4770    -0.0760   -13.2590 c          1 XVJ       0.640100
     20 C12          1.7050    -1.1280   -12.0580 c5         1 XVJ       0.158300
     21 C14          2.1240    -1.4300   -10.5600 c5         1 XVJ      -0.146700
     22 C16          3.6770    -1.4900   -10.3150 c5         1 XVJ      -0.097400
     23 C18          6.9900    -0.0500   -14.1920 c3         1 XVJ      -0.033100
     24 C19          7.1330    -0.6260   -12.7850 ca         1 XVJ      -0.115300
     25 C23          7.1610    -0.3070   -10.3630 ca         1 XVJ      -0.163500
     26 C27          2.9650     5.1480   -17.5680 c3         1 XVJ      -0.075400
     27 C30          7.7710    -0.2280    -4.8810 c3         1 XVJ       0.220100
     28 C31          9.3020    -4.1080    -5.3090 c3         1 XVJ       0.220100
     29 C32          6.6860     0.8000    -5.2580 c3         1 XVJ      -0.121100
     30 C33          9.0160    -3.8560    -3.8140 c3         1 XVJ      -0.121100
     31 C34         10.1120     7.6360   -19.3120 cc         1 XVJ       0.399100
     32 N35          5.8870     3.6520   -15.3970 n3         1 XVJ      -0.745500
     33 N36          4.5380    -0.3610   -14.0690 ns         1 XVJ      -0.504900
     34 N37         10.6090     6.4120   -19.0660 nd         1 XVJ      -0.528100
     35 O40          5.5850     0.1590   -16.8640 oh         1 XVJ      -0.669000
     36 O41          3.2150     1.0280   -12.8110 o          1 XVJ      -0.541000
     37 O42          2.8160    -1.2430   -12.9960 os         1 XVJ      -0.452100
     38 O43          1.2900    -3.4100   -11.6360 os         1 XVJ      -0.464000
     39 O44          2.8580    -3.6250    -9.9360 os         1 XVJ      -0.425000
     40 O46          7.1990    -1.5440    -4.9100 os         1 XVJ      -0.611900
     41 O47          8.8480    -3.0000    -6.1050 os         1 XVJ      -0.611900
     42 O48          6.3160    -3.6860    -6.1620 o          1 XVJ      -0.536000
     43 P49          7.2900    -2.5570    -6.1770 p5         1 XVJ       1.357800
     44 S50          7.2030     4.3640   -14.5710 sy         1 XVJ       1.169600
     45 S51          8.7480     8.2120   -18.3290 ss         1 XVJ       0.051800
     46 H101         5.5200     1.4480   -13.7430 h1         1 XVJ       0.108700
     47 H131         0.6650    -2.5390   -13.4290 h1         1 XVJ       0.057200
     48 H132        -0.2770    -2.0920   -11.9780 h1         1 XVJ       0.057200
     49 H151         0.8590    -3.0180    -9.6150 h2         1 XVJ       0.081700
     50 H171         4.9160    -3.3210   -10.1190 h1         1 XVJ       0.057200
     51 H172         3.9850    -3.2320   -11.6450 h1         1 XVJ       0.057200
     52 H201         7.3540    -2.6810   -13.4510 ha         1 XVJ       0.123500
     53 H211         7.5260    -3.6100   -11.1560 ha         1 XVJ       0.123500
     54 H241         6.9450     1.2960   -11.7950 ha         1 XVJ       0.123500
     55 H261         3.7490     3.2250   -17.1310 hc         1 XVJ       0.046700
     56 H283         3.2000     3.0950   -14.7080 hc         1 XVJ       0.043700
     57 H281         2.6200     4.7640   -14.7230 hc         1 XVJ       0.043700
     58 H282         1.7610     3.5150   -15.6530 hc         1 XVJ       0.043700
     59 H031         7.2490     6.8850   -16.0790 ha         1 XVJ       0.143000
     60 H051         9.4740     3.1450   -16.0100 ha         1 XVJ       0.140000
     61 H061        10.8920     3.9720   -17.8800 ha         1 XVJ       0.139000
     62 H071         5.6080     4.9280   -17.0710 h1         1 XVJ       0.052700
     63 H072         4.9280     5.5460   -15.5710 h1         1 XVJ       0.052700
     64 H081         7.2900     2.1420   -16.0260 h1         1 XVJ       0.061700
     65 H082         6.1600     2.6410   -17.2530 h1         1 XVJ       0.061700
     66 H091         4.3210     1.4930   -15.9110 h1         1 XVJ       0.055700
     67 H121         1.1880    -0.1660   -12.1800 h1         1 XVJ       0.083700
     68 H141         1.6210    -0.7520    -9.8610 hc         1 XVJ       0.075700
     69 H162         3.9110    -1.2430    -9.2740 hc         1 XVJ       0.062200
     70 H161         4.2810    -0.8140   -10.9260 hc         1 XVJ       0.062200
     71 H182         7.1570    -0.8370   -14.9370 hc         1 XVJ       0.058700
     72 H181         7.7790     0.6910   -14.3600 hc         1 XVJ       0.058700
     73 H231         7.1000     0.3710    -9.5170 ha         1 XVJ       0.123500
     74 H253         2.2290     7.1850   -17.8080 hc         1 XVJ       0.033700
     75 H252         2.0500     6.5620   -16.1600 hc         1 XVJ       0.033700
     76 H251         3.6490     7.0710   -16.7560 hc         1 XVJ       0.033700
     77 H271         2.0080     4.7210   -17.8910 hc         1 XVJ       0.039200
     78 H272         3.5840     5.2200   -18.4710 hc         1 XVJ       0.039200
     79 H292         7.9980    -0.7420    -7.6230 h1         1 XVJ       0.066200
     80 H291         6.2320    -1.0260    -7.6990 h1         1 XVJ       0.066200
     81 H302         8.1330    -0.0040    -3.8690 h1         1 XVJ       0.046950
     82 H301         8.6280    -0.1390    -5.5620 h1         1 XVJ       0.046950
     83 H311        10.3840    -4.2400    -5.4430 h1         1 XVJ       0.046950
     84 H312         8.8160    -5.0420    -5.6230 h1         1 XVJ       0.046950
     85 H322         7.0700     1.8160    -5.1090 hc         1 XVJ       0.049867
     86 H321         6.3790     0.7120    -6.3040 hc         1 XVJ       0.049867
     87 H323         5.8030     0.6760    -4.6200 hc         1 XVJ       0.049867
     88 H333         9.5040    -4.6270    -3.2070 hc         1 XVJ       0.049867
     89 H332         9.4080    -2.8810    -3.5030 hc         1 XVJ       0.049867
     90 H331         7.9420    -3.8960    -3.5970 hc         1 XVJ       0.049867
     91 H341        10.4980     8.2950   -20.0790 h5         1 XVJ       0.063800
     92 H361         4.6550    -1.3370   -14.3050 hn         1 XVJ       0.323500
     93 H401         4.8990    -0.5290   -16.7230 ho         1 XVJ       0.453000
     94 O45          7.3900    -2.2750    -8.9270 os         1 XVJ      -0.322100
     95 C07          5.0670     4.6320   -16.1620 c3         1 XVJ       0.209800
     96 C25          2.7110     6.5760   -17.0340 c3         1 XVJ      -0.090100
     97 C29          7.2170    -1.5050    -7.7110 c3         1 XVJ      -0.190400
     98 O38          7.8730     3.2750   -13.8550 o          1 XVJ      -0.533500
     99 O39          6.6570     5.5090   -13.8340 o          1 XVJ      -0.533500
@<TRIPOS>BOND
     1     1    18 1   
     2     1    23 1   
     3     1    33 1   
     4     1    46 1   
     5     2    20 1   
     6     2    38 1   
     7     2    47 1   
     8     2    48 1   
     9     3    21 1   
    10     3    38 1   
    11     3    39 1   
    12     3    49 1   
    13     4    22 1   
    14     4    39 1   
    15     4    50 1   
    16     4    51 1   
    17     5     6 ar  
    18     5    24 ar  
    19     5    52 1   
    20     6     7 ar  
    21     6    53 1   
    22     7    25 ar  
    23     7    94 1   
    24     8    24 ar  
    25     8    25 ar  
    26     8    54 1   
    27     9    10 1   
    28     9    26 1   
    29     9    55 1   
    30     9    95 1   
    31    10    56 1   
    32    10    57 1   
    33    10    58 1   
    34    11    12 ar  
    35    11    16 ar  
    36    11    34 1   
    37    12    13 ar  
    38    12    45 1   
    39    13    14 ar  
    40    13    59 1   
    41    14    15 ar  
    42    14    44 1   
    43    15    16 ar  
    44    15    60 1   
    45    16    61 1   
    46    17    18 1   
    47    17    32 1   
    48    17    64 1   
    49    17    65 1   
    50    18    35 1   
    51    18    66 1   
    52    19    33 1   
    53    19    36 2   
    54    19    37 1   
    55    20    21 1   
    56    20    37 1   
    57    20    67 1   
    58    21    22 1   
    59    21    68 1   
    60    22    69 1   
    61    22    70 1   
    62    23    24 1   
    63    23    71 1   
    64    23    72 1   
    65    25    73 1   
    66    26    77 1   
    67    26    78 1   
    68    26    96 1   
    69    27    29 1   
    70    27    40 1   
    71    27    81 1   
    72    27    82 1   
    73    28    30 1   
    74    28    41 1   
    75    28    83 1   
    76    28    84 1   
    77    29    85 1   
    78    29    86 1   
    79    29    87 1   
    80    30    88 1   
    81    30    89 1   
    82    30    90 1   
    83    31    34 2   
    84    31    45 1   
    85    31    91 1   
    86    32    44 1   
    87    32    95 1   
    88    33    92 1   
    89    35    93 1   
    90    40    43 1   
    91    41    43 1   
    92    42    43 2   
    93    43    97 1   
    94    44    98 2   
    95    44    99 2   
    96    62    95 1   
    97    63    95 1   
    98    74    96 1   
    99    75    96 1   
   100    76    96 1   
   101    79    97 1   
   102    80    97 1   
   103    94    97 1   
@<TRIPOS>SUBSTRUCTURE
     1 XVJ         1 TEMP              0 ****  ****    0 ROOT
