@<TRIPOS>MOLECULE
XVJ
   99   103     1     0     0
SMALL
bcc


@<TRIPOS>ATOM
      1 C10          5.7320     0.7570   -14.4420 c3         1 XVJ       0.093700
      2 C13          1.0750    -1.8280   -11.8780 c5         1 XVJ       0.130400
      3 C15          2.1880    -2.7620   -10.1220 c5         1 XVJ       0.324900
      4 C17          4.4530    -2.8940   -10.4070 c5         1 XVJ       0.133400
      5 C20          7.4960    -1.6650   -12.6190 ca         1 XVJ      -0.087500
      6 C21          7.6500    -2.1540   -11.3340 ca         1 XVJ      -0.181500
      7 C22          7.6990    -1.2740   -10.2580 ca         1 XVJ       0.130100
      8 C24          7.4860     0.5670   -11.7890 ca         1 XVJ      -0.087500
      9 C26          3.3120     3.7770   -16.8390 c3         1 XVJ      -0.060700
     10 C28          2.6950     3.8390   -15.4460 c3         1 XVJ      -0.090100
     11 C01          9.9340     5.9700   -17.6790 ca         1 XVJ       0.132400
     12 C02          8.7370     6.6950   -17.5500 ca         1 XVJ      -0.089100
     13 C03          7.7200     6.2860   -16.6990 ca         1 XVJ       0.014000
     14 C04          7.9270     5.1180   -15.9850 ca         1 XVJ      -0.294500
     15 C05          9.1160     4.3830   -16.0880 ca         1 XVJ      -0.050000
     16 C06         10.1200     4.8060   -16.9330 ca         1 XVJ      -0.088000
     17 C08          6.1530     2.3270   -16.4420 c3         1 XVJ       0.215800
     18 C09          5.3880     1.1200   -15.8960 c3         1 XVJ       0.129100
     19 C11          3.8850     0.1150   -12.9630 c          1 XVJ       0.756100
     20 C12          2.1820    -0.8280   -11.6000 c5         1 XVJ       0.135100
     21 C14          2.6900    -1.3000   -10.2280 c5         1 XVJ      -0.146700
     22 C16          4.1980    -1.4420   -10.0310 c5         1 XVJ      -0.097400
     23 C18          7.1550     0.2070   -14.2680 c3         1 XVJ      -0.033100
     24 C19          7.3980    -0.2980   -12.8740 ca         1 XVJ      -0.115300
     25 C23          7.6380     0.0960   -10.4890 ca         1 XVJ      -0.181500
     26 C27          2.4630     4.5010   -17.8920 c3         1 XVJ      -0.075400
     27 C30          7.8120    -0.6920    -4.5710 c3         1 XVJ       0.196900
     28 C31          8.2570    -4.4370    -5.8460 c3         1 XVJ       0.196900
     29 C32          7.2330     0.4680    -3.7980 c3         1 XVJ      -0.121100
     30 C33          7.8660    -4.4940    -4.3870 c3         1 XVJ      -0.121100
     31 C34         10.3790     7.5810   -19.0840 cc         1 XVJ       0.399100
     32 N35          5.6400     3.6040   -15.9460 n3         1 XVJ      -0.745500
     33 N36          4.7620    -0.1920   -13.9350 ns         1 XVJ      -0.571900
     34 N37         10.8420     6.5040   -18.5590 nd         1 XVJ      -0.528100
     35 O40          5.6540     0.0600   -16.7870 oh         1 XVJ      -0.606800
     36 O41          3.7470     1.2100   -12.4570 o          1 XVJ      -0.590000
     37 O42          3.1620    -0.9640   -12.6270 os         1 XVJ      -0.428900
     38 O43          1.5300    -3.0480   -11.3360 os         1 XVJ      -0.417600
     39 O44          3.2900    -3.5830    -9.9590 os         1 XVJ      -0.378600
     40 O46          6.7500    -1.3330    -5.3010 os         1 XVJ      -0.588700
     41 O47          8.3040    -3.0930    -6.3610 os         1 XVJ      -0.588700
     42 O48          5.7560    -3.0000    -6.9360 o          1 XVJ      -0.765300
     43 P49          6.9790    -2.2320    -6.6040 p5         1 XVJ       1.429300
     44 S50          6.6110     4.5020   -14.9630 sy         1 XVJ       1.311200
     45 S51          8.7980     8.0810   -18.5800 ss         1 XVJ      -0.075100
     46 H101         5.6320     1.6600   -13.8430 h1         1 XVJ       0.108700
     47 H131         0.8640    -1.9590   -12.9400 h1         1 XVJ       0.057200
     48 H132         0.1550    -1.4880   -11.3870 h1         1 XVJ       0.057200
     49 H151         1.5070    -2.9380    -9.2810 h2         1 XVJ       0.081700
     50 H171         5.3160    -3.3240    -9.9000 h1         1 XVJ       0.057200
     51 H172         4.5950    -3.0150   -11.4850 h1         1 XVJ       0.057200
     52 H201         7.4380    -2.3670   -13.4430 ha         1 XVJ       0.141500
     53 H211         7.7060    -3.2210   -11.1570 ha         1 XVJ       0.141500
     54 H241         7.4310     1.6370   -11.9500 ha         1 XVJ       0.141500
     55 H261         3.3460     2.7290   -17.1550 hc         1 XVJ       0.046700
     56 H283         3.2380     3.2130   -14.7370 hc         1 XVJ       0.043700
     57 H281         2.6970     4.8560   -15.0520 hc         1 XVJ       0.043700
     58 H282         1.6610     3.4910   -15.4660 hc         1 XVJ       0.043700
     59 H031         6.8110     6.8630   -16.6040 ha         1 XVJ       0.161000
     60 H051         9.2600     3.4880   -15.4980 ha         1 XVJ       0.158000
     61 H061        11.0430     4.2490   -17.0160 ha         1 XVJ       0.157000
     62 H071         5.1430     4.2940   -17.8650 h1         1 XVJ       0.052700
     63 H072         4.7030     5.3750   -16.5530 h1         1 XVJ       0.052700
     64 H081         7.2230     2.2250   -16.2500 h1         1 XVJ       0.061700
     65 H082         6.0480     2.3280   -17.5300 h1         1 XVJ       0.061700
     66 H091         4.3200     1.3690   -15.9050 h1         1 XVJ       0.055700
     67 H121         1.8080     0.1940   -11.5720 h1         1 XVJ       0.083700
     68 H141         2.2410    -0.6720    -9.4580 hc         1 XVJ       0.075700
     69 H162         4.4410    -1.2880    -8.9780 hc         1 XVJ       0.062200
     70 H161         4.8030    -0.7410   -10.6020 hc         1 XVJ       0.062200
     71 H182         7.3240    -0.6020   -14.9820 hc         1 XVJ       0.058700
     72 H181         7.8700     0.9950   -14.5150 hc         1 XVJ       0.058700
     73 H231         7.7000     0.8090    -9.6770 ha         1 XVJ       0.141500
     74 H253         1.5940     6.4030   -18.4340 hc         1 XVJ       0.033700
     75 H252         1.7280     6.1720   -16.6980 hc         1 XVJ       0.033700
     76 H251         3.1550     6.5630   -17.6520 hc         1 XVJ       0.033700
     77 H271         1.4960     3.9940   -17.9490 hc         1 XVJ       0.039200
     78 H272         2.9300     4.3650   -18.8720 hc         1 XVJ       0.039200
     79 H292         8.3870    -0.4720    -7.5750 h1         1 XVJ       0.066200
     80 H291         6.6900    -0.3650    -8.0560 h1         1 XVJ       0.066200
     81 H302         8.2640    -1.4210    -3.8960 h1         1 XVJ       0.046950
     82 H301         8.5930    -0.3390    -5.2480 h1         1 XVJ       0.046950
     83 H311         9.2630    -4.8280    -5.9900 h1         1 XVJ       0.046950
     84 H312         7.5770    -5.0360    -6.4550 h1         1 XVJ       0.046950
     85 H322         8.0240     0.9430    -3.2190 hc         1 XVJ       0.049867
     86 H321         6.8070     1.2180    -4.4650 hc         1 XVJ       0.049867
     87 H323         6.4610     0.1380    -3.1030 hc         1 XVJ       0.049867
     88 H333         7.9450    -5.5240    -4.0370 hc         1 XVJ       0.049867
     89 H332         8.5260    -3.8810    -3.7730 hc         1 XVJ       0.049867
     90 H331         6.8380    -4.1710    -4.2250 hc         1 XVJ       0.049867
     91 H341        10.9210     8.1730   -19.8100 h5         1 XVJ       0.063800
     92 H361         4.8370    -1.1590   -14.2150 hn         1 XVJ       0.323500
     93 H401         5.0240    -0.6500   -16.6290 ho         1 XVJ       0.414000
     94 O45          7.8010    -1.8410    -9.0300 os         1 XVJ      -0.298900
     95 C07          4.7360     4.3280   -16.8480 c3         1 XVJ       0.209800
     96 C25          2.2280     5.9880   -17.6500 c3         1 XVJ      -0.090100
     97 C29          7.5200    -1.0620    -7.8920 c3         1 XVJ      -0.055800
     98 O38          7.2030     3.6020   -13.9880 o          1 XVJ      -0.604300
     99 O39          5.8330     5.6400   -14.5030 o          1 XVJ      -0.604300
@<TRIPOS>BOND
     1     1    18 1   
     2     1    23 1   
     3     1    33 1   
     4     1    46 1   
     5     2    20 1   
     6     2    38 1   
     7     2    47 1   
     8     2    48 1   
     9     3    21 1   
    10     3    38 1   
    11     3    39 1   
    12     3    49 1   
    13     4    22 1   
    14     4    39 1   
    15     4    50 1   
    16     4    51 1   
    17     5     6 ar  
    18     5    24 ar  
    19     5    52 1   
    20     6     7 ar  
    21     6    53 1   
    22     7    25 ar  
    23     7    94 1   
    24     8    24 ar  
    25     8    25 ar  
    26     8    54 1   
    27     9    10 1   
    28     9    26 1   
    29     9    55 1   
    30     9    95 1   
    31    10    56 1   
    32    10    57 1   
    33    10    58 1   
    34    11    12 ar  
    35    11    16 ar  
    36    11    34 1   
    37    12    13 ar  
    38    12    45 1   
    39    13    14 ar  
    40    13    59 1   
    41    14    15 ar  
    42    14    44 1   
    43    15    16 ar  
    44    15    60 1   
    45    16    61 1   
    46    17    18 1   
    47    17    32 1   
    48    17    64 1   
    49    17    65 1   
    50    18    35 1   
    51    18    66 1   
    52    19    33 1   
    53    19    36 2   
    54    19    37 1   
    55    20    21 1   
    56    20    37 1   
    57    20    67 1   
    58    21    22 1   
    59    21    68 1   
    60    22    69 1   
    61    22    70 1   
    62    23    24 1   
    63    23    71 1   
    64    23    72 1   
    65    25    73 1   
    66    26    77 1   
    67    26    78 1   
    68    26    96 1   
    69    27    29 1   
    70    27    40 1   
    71    27    81 1   
    72    27    82 1   
    73    28    30 1   
    74    28    41 1   
    75    28    83 1   
    76    28    84 1   
    77    29    85 1   
    78    29    86 1   
    79    29    87 1   
    80    30    88 1   
    81    30    89 1   
    82    30    90 1   
    83    31    34 2   
    84    31    45 1   
    85    31    91 1   
    86    32    44 1   
    87    32    95 1   
    88    33    92 1   
    89    35    93 1   
    90    40    43 1   
    91    41    43 1   
    92    42    43 2   
    93    43    97 1   
    94    44    98 2   
    95    44    99 2   
    96    62    95 1   
    97    63    95 1   
    98    74    96 1   
    99    75    96 1   
   100    76    96 1   
   101    79    97 1   
   102    80    97 1   
   103    94    97 1   
@<TRIPOS>SUBSTRUCTURE
     1 XVJ         1 TEMP              0 ****  ****    0 ROOT
