@<TRIPOS>MOLECULE
XVK
   55    57     1     0     0
SMALL
No Charge or Current Charge


@<TRIPOS>ATOM
      1 C13         -6.7500    34.4690   -41.0380 ca         1 XVK       0.137000
      2 C15         -6.7210    33.4530   -38.8290 ca         1 XVK      -0.064300
      3 C17         -5.9800    33.0950   -37.5470 c3         1 XVK      -0.034100
      4 C22         -5.3470    31.3460   -35.0510 c6         1 XVK       0.164800
      5 C26         -4.1050    29.8560   -36.5450 c6         1 XVK       0.164800
      6 C14         -6.0620    34.1480   -39.8600 ca         1 XVK      -0.129000
      7 C18         -5.5330    31.6160   -37.5330 c3         1 XVK       0.170800
      8 C23         -4.4090    30.9370   -33.8680 c6         1 XVK       0.162300
      9 C25         -3.1650    29.4520   -35.3630 c6         1 XVK       0.162300
     10 C16         -8.0710    33.0820   -38.9900 ca         1 XVK      -0.106000
     11 C11         -8.7780    33.3990   -40.1750 ca         1 XVK      -0.076300
     12 C12         -8.0990    34.0990   -41.1980 ca         1 XVK       0.119000
     13 C02        -14.5860    32.3780   -39.3720 ca         1 XVK       0.594900
     14 C03        -14.9960    31.2920   -40.1470 ca         1 XVK      -0.226000
     15 C04        -14.0130    30.4380   -40.6700 ca         1 XVK       0.000700
     16 C05        -12.6740    30.7380   -40.3720 ca         1 XVK      -0.212000
     17 C06        -12.3740    31.8630   -39.5800 ca         1 XVK       0.390300
     18 C08        -10.9320    32.2190   -39.2510 c3         1 XVK      -0.122700
     19 C09        -10.2490    33.0120   -40.3920 c3         1 XVK      -0.027100
     20 C27         -2.9720    29.1630   -32.9120 c3         1 XVK       0.152100
     21 F12         -8.7470    34.4180   -42.3440 f          1 XVK      -0.167000
     22 F13         -6.1050    35.1370   -42.0220 f          1 XVK      -0.166000
     23 N01        -13.3290    32.6820   -39.0850 nb         1 XVK      -0.748000
     24 N02        -15.4310    33.2600   -38.8320 nv         1 XVK      -1.053900
     25 N21         -4.6720    31.2320   -36.3860 n3         1 XVK      -0.727600
     26 N24         -3.8430    29.5640   -34.0360 n3         1 XVK      -0.720600
     27 H1          -5.0960    33.7340   -37.4260 hc         1 XVK       0.058200
     28 H2          -6.6270    33.2950   -36.6860 hc         1 XVK       0.058200
     29 H3          -5.6830    32.3770   -34.8720 h1         1 XVK       0.038200
     30 H4          -6.2420    30.7060   -35.0250 h1         1 XVK       0.038200
     31 H5          -4.9180    29.1180   -36.6110 h1         1 XVK       0.038200
     32 H6          -3.5340    29.7870   -37.4830 h1         1 XVK       0.038200
     33 H7          -5.0200    34.4380   -39.7520 ha         1 XVK       0.137000
     34 H8          -6.4280    30.9790   -37.5600 h1         1 XVK       0.035200
     35 H9          -4.9850    31.4330   -38.4670 h1         1 XVK       0.035200
     36 H10         -3.5960    31.6750   -33.7990 h1         1 XVK       0.038700
     37 H11         -4.9800    31.0010   -32.9310 h1         1 XVK       0.038700
     38 H12         -2.8180    28.4220   -35.5280 h1         1 XVK       0.038700
     39 H13         -2.2750    30.0990   -35.3890 h1         1 XVK       0.038700
     40 H14         -8.5560    32.5460   -38.1800 ha         1 XVK       0.121000
     41 H15        -16.0500    31.1150   -40.3360 ha         1 XVK       0.119000
     42 H16        -11.8710    30.1110   -40.7490 ha         1 XVK       0.121000
     43 H17        -13.6090    29.0230   -42.2690 hc         1 XVK       0.047367
     44 H18        -14.4990    28.3380   -40.8970 hc         1 XVK       0.047367
     45 H19        -15.3250    29.3950   -42.0550 hc         1 XVK       0.047367
     46 H20        -10.3680    31.2970   -39.0630 hc         1 XVK       0.056200
     47 H21        -10.8920    32.8070   -38.3260 hc         1 XVK       0.056200
     48 H22        -10.8350    33.9230   -40.5700 hc         1 XVK       0.067700
     49 H23        -10.3290    32.4210   -41.3130 hc         1 XVK       0.067700
     50 H24         -3.5190    29.2100   -31.9610 h1         1 XVK       0.031033
     51 H25         -2.6160    28.1320   -33.0460 h1         1 XVK       0.031033
     52 H26         -2.0960    29.8220   -32.8380 h1         1 XVK       0.031033
     53 H27        -14.9970    34.1140   -38.5030 hn         1 XVK       0.468000
     54 H28        -16.3500    33.3490   -39.2490 hn         1 XVK       0.468000
     55 C07        -14.3820    29.2330   -41.5190 c3         1 XVK      -0.053800
@<TRIPOS>BOND
     1     1     6 ar  
     2     1    12 ar  
     3     1    22 1   
     4     2     3 1   
     5     2     6 ar  
     6     2    10 ar  
     7     3     7 1   
     8     3    27 1   
     9     3    28 1   
    10     4     8 1   
    11     4    25 1   
    12     4    29 1   
    13     4    30 1   
    14     5     9 1   
    15     5    25 1   
    16     5    31 1   
    17     5    32 1   
    18     6    33 1   
    19     7    25 1   
    20     7    34 1   
    21     7    35 1   
    22     8    26 1   
    23     8    36 1   
    24     8    37 1   
    25     9    26 1   
    26     9    38 1   
    27     9    39 1   
    28    10    11 ar  
    29    10    40 1   
    30    11    12 ar  
    31    11    19 1   
    32    12    21 1   
    33    13    14 ar  
    34    13    23 ar  
    35    13    24 1   
    36    14    15 ar  
    37    14    41 1   
    38    15    16 ar  
    39    15    55 1   
    40    16    17 ar  
    41    16    42 1   
    42    17    18 1   
    43    17    23 ar  
    44    18    19 1   
    45    18    46 1   
    46    18    47 1   
    47    19    48 1   
    48    19    49 1   
    49    20    26 1   
    50    20    50 1   
    51    20    51 1   
    52    20    52 1   
    53    24    53 1   
    54    24    54 1   
    55    43    55 1   
    56    44    55 1   
    57    45    55 1   
@<TRIPOS>SUBSTRUCTURE
     1 XVK         1 TEMP              0 ****  ****    0 ROOT
