@<TRIPOS>MOLECULE
XVK
   55    57     1     0     0
SMALL
abcg2


@<TRIPOS>ATOM
      1 C13         -6.7640    34.4620   -40.7640 ca         1 XVK       0.137000
      2 C15         -6.8240    33.4290   -38.6080 ca         1 XVK      -0.064300
      3 C17         -6.1340    33.0120   -37.3370 c3         1 XVK      -0.034100
      4 C22         -5.4430    31.0410   -35.0970 c6         1 XVK       0.164800
      5 C26         -3.9280    30.0200   -36.6370 c6         1 XVK       0.164800
      6 C14         -6.1250    34.1340   -39.5860 ca         1 XVK      -0.129000
      7 C18         -5.5450    31.6010   -37.4650 c3         1 XVK       0.170800
      8 C23         -4.5000    30.7090   -33.9530 c6         1 XVK       0.162300
      9 C25         -2.9820    29.6910   -35.4960 c6         1 XVK       0.162300
     10 C16         -8.1520    33.0730   -38.8490 ca         1 XVK      -0.106000
     11 C11         -8.8100    33.3960   -40.0350 ca         1 XVK      -0.076300
     12 C12         -8.0810    34.0990   -40.9880 ca         1 XVK       0.119000
     13 C02        -14.5020    32.6840   -39.8900 ca         1 XVK       0.594900
     14 C03        -14.9620    31.4370   -40.3500 ca         1 XVK      -0.226000
     15 C04        -14.0720    30.3850   -40.4520 ca         1 XVK       0.000700
     16 C05        -12.7370    30.6150   -40.0870 ca         1 XVK      -0.212000
     17 C06        -12.3600    31.8730   -39.6460 ca         1 XVK       0.390300
     18 C08        -10.9340    32.1740   -39.2700 c3         1 XVK      -0.122700
     19 C09        -10.2450    33.0350   -40.3320 c3         1 XVK      -0.027100
     20 C27         -2.8330    29.1670   -33.1510 c3         1 XVK       0.152100
     21 F12         -8.6570    34.4480   -42.1620 f          1 XVK      -0.167000
     22 F13         -6.1070    35.1500   -41.7240 f          1 XVK      -0.166000
     23 N01        -13.2270    32.8950   -39.5500 nb         1 XVK      -0.748000
     24 N02        -15.3740    33.7360   -39.7220 nv         1 XVK      -1.053900
     25 N21         -4.6980    31.2260   -36.3400 n3         1 XVK      -0.727600
     26 N24         -3.7190    29.5130   -34.2500 n3         1 XVK      -0.720600
     27 H1          -5.3220    33.7050   -37.1080 hc         1 XVK       0.058200
     28 H2          -6.8440    33.0490   -36.5100 hc         1 XVK       0.058200
     29 H3          -5.9820    31.9570   -34.8560 h1         1 XVK       0.038200
     30 H4          -6.1880    30.2320   -35.2030 h1         1 XVK       0.038200
     31 H5          -4.5950    29.1580   -36.8140 h1         1 XVK       0.038200
     32 H6          -3.3530    30.1880   -37.5500 h1         1 XVK       0.038200
     33 H7          -5.0940    34.4300   -39.4410 ha         1 XVK       0.137000
     34 H8          -6.3660    30.8780   -37.6090 h1         1 XVK       0.035200
     35 H9          -4.9280    31.5650   -38.3650 h1         1 XVK       0.035200
     36 H10         -3.8400    31.5760   -33.7690 h1         1 XVK       0.038700
     37 H11         -5.0780    30.5350   -33.0430 h1         1 XVK       0.038700
     38 H12         -2.4430    28.7680   -35.7210 h1         1 XVK       0.038700
     39 H13         -2.2360    30.5000   -35.4020 h1         1 XVK       0.038700
     40 H14         -8.6860    32.5270   -38.0820 ha         1 XVK       0.121000
     41 H15        -16.0050    31.3110   -40.6160 ha         1 XVK       0.119000
     42 H16        -12.0050    29.8200   -40.1490 ha         1 XVK       0.121000
     43 H17        -13.9350    28.7330   -41.8160 hc         1 XVK       0.047367
     44 H18        -14.3390    28.2750   -40.1680 hc         1 XVK       0.047367
     45 H19        -15.5690    29.0270   -41.1970 hc         1 XVK       0.047367
     46 H20        -10.3870    31.2400   -39.1370 hc         1 XVK       0.056200
     47 H21        -10.9310    32.6990   -38.3120 hc         1 XVK       0.056200
     48 H22        -10.8210    33.9550   -40.4700 hc         1 XVK       0.067700
     49 H23        -10.2840    32.5160   -41.2940 hc         1 XVK       0.067700
     50 H24         -3.4160    29.0040   -32.2430 h1         1 XVK       0.031033
     51 H25         -2.2930    28.2480   -33.3870 h1         1 XVK       0.031033
     52 H26         -2.0900    29.9570   -32.9440 h1         1 XVK       0.031033
     53 H27        -14.9490    34.6490   -39.6690 hn         1 XVK       0.468000
     54 H28        -16.2340    33.7050   -40.2470 hn         1 XVK       0.468000
     55 C07        -14.5100    29.0330   -40.9360 c3         1 XVK      -0.053800
@<TRIPOS>BOND
     1     1     6 ar  
     2     1    12 ar  
     3     1    22 1   
     4     2     3 1   
     5     2     6 ar  
     6     2    10 ar  
     7     3     7 1   
     8     3    27 1   
     9     3    28 1   
    10     4     8 1   
    11     4    25 1   
    12     4    29 1   
    13     4    30 1   
    14     5     9 1   
    15     5    25 1   
    16     5    31 1   
    17     5    32 1   
    18     6    33 1   
    19     7    25 1   
    20     7    34 1   
    21     7    35 1   
    22     8    26 1   
    23     8    36 1   
    24     8    37 1   
    25     9    26 1   
    26     9    38 1   
    27     9    39 1   
    28    10    11 ar  
    29    10    40 1   
    30    11    12 ar  
    31    11    19 1   
    32    12    21 1   
    33    13    14 ar  
    34    13    23 ar  
    35    13    24 1   
    36    14    15 ar  
    37    14    41 1   
    38    15    16 ar  
    39    15    55 1   
    40    16    17 ar  
    41    16    42 1   
    42    17    18 1   
    43    17    23 ar  
    44    18    19 1   
    45    18    46 1   
    46    18    47 1   
    47    19    48 1   
    48    19    49 1   
    49    20    26 1   
    50    20    50 1   
    51    20    51 1   
    52    20    52 1   
    53    24    53 1   
    54    24    54 1   
    55    43    55 1   
    56    44    55 1   
    57    45    55 1   
@<TRIPOS>SUBSTRUCTURE
     1 XVK         1 TEMP              0 ****  ****    0 ROOT
