@<TRIPOS>MOLECULE
XVM
  100   104     1     0     0
SMALL
bcc


@<TRIPOS>ATOM
      1 C13         71.9150    57.7320    15.0330 c3         1 XVM       0.132100
      2 C15         71.6530    58.2560    16.4550 c3         1 XVM       0.099700
      3 C17         73.5790    58.8410    17.8770 c          1 XVM       0.756100
      4 C20         75.4310    59.7490    19.0710 c5         1 XVM       0.138100
      5 C21         76.6240    60.5630    18.6050 c5         1 XVM       0.128400
      6 C24         75.6990    61.8690    20.2310 c5         1 XVM       0.324900
      7 C26         73.4340    62.1570    20.0440 c5         1 XVM       0.129400
      8 C28         70.3280    59.0140    16.6060 c3         1 XVM      -0.033100
      9 C01         67.2100    52.7560    13.3960 ca         1 XVM       0.110100
     10 C02         68.2760    52.0240    13.9050 ca         1 XVM       0.031100
     11 C03         69.1720    52.5570    14.7920 ca         1 XVM      -0.029000
     12 C04         68.9570    53.8980    15.1520 ca         1 XVM      -0.313500
     13 C05         67.8950    54.6360    14.6530 ca         1 XVM      -0.024000
     14 C06         66.9920    54.0640    13.7520 ca         1 XVM      -0.143000
     15 C11         72.1900    54.3690    14.6440 c3         1 XVM       0.204800
     16 C12         71.0240    56.5630    14.6080 c3         1 XVM       0.212800
     17 C23         75.0710    60.4610    20.3830 c5         1 XVM      -0.145700
     18 C25         73.6000    60.7690    20.6480 c5         1 XVM      -0.099400
     19 C29         70.0880    59.4360    18.0300 ca         1 XVM      -0.116300
     20 C30         69.6930    58.5070    18.9940 ca         1 XVM      -0.089000
     21 C31         69.5110    58.8700    20.3150 ca         1 XVM      -0.181500
     22 C32         69.7230    60.1890    20.7110 ca         1 XVM       0.128100
     23 C33         70.1050    61.1340    19.7680 ca         1 XVM      -0.181500
     24 C34         70.2870    60.7460    18.4430 ca         1 XVM      -0.089000
     25 C37         74.5300    52.2750    14.5170 c3         1 XVM      -0.090100
     26 C38         73.6750    54.7120    14.7460 c3         1 XVM      -0.058700
     27 C39         74.4980    53.6910    13.9490 c3         1 XVM      -0.075400
     28 C40         74.1310    54.8210    16.1960 c3         1 XVM      -0.090100
     29 C42         70.0930    61.6250    22.5620 c3         1 XVM      -0.051800
     30 C46         67.5150    62.4340    24.8700 c3         1 XVM       0.197900
     31 C47         70.6170    59.5790    26.0180 c3         1 XVM       0.197900
     32 C48         67.3930    62.8160    26.3260 c3         1 XVM      -0.123600
     33 C49         69.6520    58.4270    26.1620 c3         1 XVM      -0.123600
     34 C51         67.2080    50.7590    12.4260 c5         1 XVM       0.326200
     35 N10         71.3130    55.3250    15.3320 n3         1 XVM      -0.734500
     36 N16         72.7420    59.1200    16.8640 ns         1 XVM      -0.571900
     37 O08         69.4200    55.7700    16.9120 o          1 XVM      -0.604300
     38 O09         70.7100    53.6200    17.0600 o          1 XVM      -0.604300
     39 O14         71.7220    58.7290    14.0530 oh         1 XVM      -0.605800
     40 O18         73.6020    57.8090    18.5180 o          1 XVM      -0.586000
     41 O19         74.4130    59.8720    18.0820 os         1 XVM      -0.433900
     42 O22         76.3250    61.8940    18.9680 os         1 XVM      -0.413600
     43 O27         74.6770    62.8030    20.2910 os         1 XVM      -0.391600
     44 O35         68.2300    50.7670    13.4150 os         1 XVM      -0.315900
     45 O36         69.5250    60.4580    22.0250 os         1 XVM      -0.289900
     46 O41         66.4820    51.9750    12.5790 os         1 XVM      -0.312900
     47 O44         68.4050    61.3170    24.6940 os         1 XVM      -0.574200
     48 O45         70.5750    60.1070    24.6770 os         1 XVM      -0.574200
     49 O50         70.5850    62.7060    25.0450 o          1 XVM      -0.801300
     50 P43         69.9600    61.5430    24.3720 p5         1 XVM       1.435300
     51 S07         70.1070    54.6690    16.2550 sy         1 XVM       1.307200
     52 H131        72.9550    57.3830    15.0230 h1         1 XVM       0.053700
     53 H151        71.6540    57.3980    17.1280 h1         1 XVM       0.103700
     54 H201        75.6830    58.7010    19.2250 h1         1 XVM       0.087700
     55 H211        76.7940    60.5110    17.5290 h1         1 XVM       0.059700
     56 H212        77.5280    60.2010    19.1120 h1         1 XVM       0.059700
     57 H241        76.4300    62.1150    21.0100 h2         1 XVM       0.080700
     58 H262        72.6480    62.7460    20.5170 h1         1 XVM       0.052200
     59 H261        73.2160    62.1080    18.9720 h1         1 XVM       0.052200
     60 H282        70.3390    59.8940    15.9590 hc         1 XVM       0.060700
     61 H281        69.5070    58.3830    16.2620 hc         1 XVM       0.060700
     62 H031        69.9840    51.9710    15.1990 ha         1 XVM       0.173000
     63 H051        67.7410    55.6610    14.9620 ha         1 XVM       0.158000
     64 H061        66.1550    54.6300    13.3670 ha         1 XVM       0.159000
     65 H112        71.8930    54.3060    13.5910 h1         1 XVM       0.051200
     66 H111        72.0410    53.3800    15.0740 h1         1 XVM       0.051200
     67 H121        69.9720    56.8400    14.7020 h1         1 XVM       0.061700
     68 H122        71.1930    56.3810    13.5440 h1         1 XVM       0.061700
     69 H231        75.5250    59.9140    21.2090 hc         1 XVM       0.078700
     70 H251        73.4270    60.8090    21.7250 hc         1 XVM       0.066700
     71 H252        72.9010    60.0400    20.2420 hc         1 XVM       0.066700
     72 H301        69.5280    57.4760    18.7060 ha         1 XVM       0.142000
     73 H311        69.2090    58.1340    21.0500 ha         1 XVM       0.141000
     74 H331        70.2670    62.1690    20.0390 ha         1 XVM       0.141000
     75 H341        70.5920    61.4950    17.7210 ha         1 XVM       0.142000
     76 H373        75.1220    51.6230    13.8740 hc         1 XVM       0.034700
     77 H372        74.9810    52.2460    15.5090 hc         1 XVM       0.034700
     78 H371        73.5360    51.8320    14.5930 hc         1 XVM       0.034700
     79 H381        73.8430    55.6780    14.2590 hc         1 XVM       0.042700
     80 H392        75.5230    54.0650    13.8810 hc         1 XVM       0.037700
     81 H391        74.1230    53.6610    12.9210 hc         1 XVM       0.037700
     82 H401        73.6500    55.6520    16.7090 hc         1 XVM       0.045033
     83 H402        73.9010    53.9140    16.7580 hc         1 XVM       0.045033
     84 H403        75.2090    54.9810    16.2510 hc         1 XVM       0.045033
     85 H422        71.1510    61.7330    22.2970 h1         1 XVM       0.064700
     86 H421        69.5810    62.5370    22.2290 h1         1 XVM       0.064700
     87 H462        66.5540    62.1090    24.4720 h1         1 XVM       0.043700
     88 H461        67.8410    63.2890    24.2710 h1         1 XVM       0.043700
     89 H472        71.6420    59.2530    26.1860 h1         1 XVM       0.043700
     90 H471        70.4010    60.3600    26.7520 h1         1 XVM       0.043700
     91 H481        66.6580    63.6150    26.4310 hc         1 XVM       0.051200
     92 H483        67.0570    61.9720    26.9290 hc         1 XVM       0.051200
     93 H482        68.3390    63.1760    26.7270 hc         1 XVM       0.051200
     94 H491        69.7460    58.0010    27.1610 hc         1 XVM       0.051200
     95 H492        68.6200    58.7500    26.0300 hc         1 XVM       0.051200
     96 H493        69.8660    57.6380    25.4410 hc         1 XVM       0.051200
     97 H512        66.5430    49.9110    12.5870 h2         1 XVM       0.071200
     98 H511        67.6550    50.7180    11.4280 h2         1 XVM       0.071200
     99 H161        72.7820    60.0480    16.4680 hn         1 XVM       0.320500
    100 H141        72.4610    59.3440    14.0830 ho         1 XVM       0.412000
@<TRIPOS>BOND
     1     1     2 1   
     2     1    16 1   
     3     1    39 1   
     4     1    52 1   
     5     2     8 1   
     6     2    36 1   
     7     2    53 1   
     8     3    36 1   
     9     3    40 2   
    10     3    41 1   
    11     4     5 1   
    12     4    17 1   
    13     4    41 1   
    14     4    54 1   
    15     5    42 1   
    16     5    55 1   
    17     5    56 1   
    18     6    17 1   
    19     6    42 1   
    20     6    43 1   
    21     6    57 1   
    22     7    18 1   
    23     7    43 1   
    24     7    58 1   
    25     7    59 1   
    26     8    19 1   
    27     8    60 1   
    28     8    61 1   
    29     9    10 ar  
    30     9    14 ar  
    31     9    46 1   
    32    10    11 ar  
    33    10    44 1   
    34    11    12 ar  
    35    11    62 1   
    36    12    13 ar  
    37    12    51 1   
    38    13    14 ar  
    39    13    63 1   
    40    14    64 1   
    41    15    26 1   
    42    15    35 1   
    43    15    65 1   
    44    15    66 1   
    45    16    35 1   
    46    16    67 1   
    47    16    68 1   
    48    17    18 1   
    49    17    69 1   
    50    18    70 1   
    51    18    71 1   
    52    19    20 ar  
    53    19    24 ar  
    54    20    21 ar  
    55    20    72 1   
    56    21    22 ar  
    57    21    73 1   
    58    22    23 ar  
    59    22    45 1   
    60    23    24 ar  
    61    23    74 1   
    62    24    75 1   
    63    25    27 1   
    64    25    76 1   
    65    25    77 1   
    66    25    78 1   
    67    26    27 1   
    68    26    28 1   
    69    26    79 1   
    70    27    80 1   
    71    27    81 1   
    72    28    82 1   
    73    28    83 1   
    74    28    84 1   
    75    29    45 1   
    76    29    50 1   
    77    29    85 1   
    78    29    86 1   
    79    30    32 1   
    80    30    47 1   
    81    30    87 1   
    82    30    88 1   
    83    31    33 1   
    84    31    48 1   
    85    31    89 1   
    86    31    90 1   
    87    32    91 1   
    88    32    92 1   
    89    32    93 1   
    90    33    94 1   
    91    33    95 1   
    92    33    96 1   
    93    34    44 1   
    94    34    46 1   
    95    34    97 1   
    96    34    98 1   
    97    35    51 1   
    98    36    99 1   
    99    37    51 2   
   100    38    51 2   
   101    39   100 1   
   102    47    50 1   
   103    48    50 1   
   104    49    50 2   
@<TRIPOS>SUBSTRUCTURE
     1 XVM         1 TEMP              0 ****  ****    0 ROOT
