@<TRIPOS>MOLECULE
XVM
  100   104     1     0     0
SMALL
No Charge or Current Charge


@<TRIPOS>ATOM
      1 C13         71.9330    57.4650    15.0810 c3         1 XVM       0.155300
      2 C15         71.6690    58.0390    16.5090 c3         1 XVM       0.099700
      3 C17         73.6830    58.5960    17.9070 c          1 XVM       0.640100
      4 C20         75.4290    59.5550    19.2210 c5         1 XVM       0.161300
      5 C21         76.5730    60.5650    18.9360 c5         1 XVM       0.151600
      6 C24         75.4870    61.5070    20.7450 c5         1 XVM       0.371300
      7 C26         73.2550    61.7980    20.2130 c5         1 XVM       0.152600
      8 C28         70.3100    58.7720    16.6870 c3         1 XVM      -0.033100
      9 C01         67.4640    52.9880    12.5130 ca         1 XVM       0.110100
     10 C02         68.3510    52.1470    13.1220 ca         1 XVM       0.031100
     11 C03         69.0750    52.5350    14.2560 ca         1 XVM      -0.011000
     12 C04         68.8710    53.8430    14.7620 ca         1 XVM      -0.313500
     13 C05         67.9410    54.7120    14.1310 ca         1 XVM      -0.006000
     14 C06         67.2270    54.2810    12.9920 ca         1 XVM      -0.125000
     15 C11         72.0690    54.0020    14.8720 c3         1 XVM       0.204800
     16 C12         71.0120    56.2620    14.7110 c3         1 XVM       0.212800
     17 C23         74.8890    60.0650    20.6200 c5         1 XVM      -0.145700
     18 C25         73.3370    60.3220    20.6630 c5         1 XVM      -0.099400
     19 C29         70.1040    59.2910    18.1090 ca         1 XVM      -0.116300
     20 C30         70.0040    58.3870    19.1840 ca         1 XVM      -0.071000
     21 C31         69.8450    58.8640    20.4970 ca         1 XVM      -0.163500
     22 C32         69.7790    60.2430    20.7490 ca         1 XVM       0.128100
     23 C33         69.8610    61.1510    19.6720 ca         1 XVM      -0.163500
     24 C34         70.0260    60.6750    18.3600 ca         1 XVM      -0.071000
     25 C37         74.4150    51.9240    14.3340 c3         1 XVM      -0.090100
     26 C38         73.5500    54.3910    14.6120 c3         1 XVM      -0.058700
     27 C39         74.2870    53.3420    13.7310 c3         1 XVM      -0.075400
     28 C40         74.3130    54.6880    15.9290 c3         1 XVM      -0.090100
     29 C42         69.6180    62.0560    22.4330 c3         1 XVM      -0.186400
     30 C46         67.1570    61.8870    25.5270 c3         1 XVM       0.221100
     31 C47         71.0810    61.4650    26.2400 c3         1 XVM       0.221100
     32 C48         67.6490    62.2360    26.9480 c3         1 XVM      -0.123600
     33 C49         70.6670    60.0780    26.7620 c3         1 XVM      -0.123600
     34 C51         67.5150    51.1020    11.3610 c5         1 XVM       0.372600
     35 N10         71.2200    55.0320    15.5350 n3         1 XVM      -0.734500
     36 N16         72.7690    58.9140    16.9450 ns         1 XVM      -0.504900
     37 O08         69.0920    55.5220    16.8400 o          1 XVM      -0.533500
     38 O09         70.1880    53.2330    17.0130 o          1 XVM      -0.533500
     39 O14         71.8110    58.5020    14.0850 oh         1 XVM      -0.668000
     40 O18         73.7590    57.5180    18.4750 o          1 XVM      -0.537000
     41 O19         74.4540    59.6990    18.1450 os         1 XVM      -0.457100
     42 O22         76.0820    61.8060    19.4710 os         1 XVM      -0.460000
     43 O27         74.3610    62.3860    20.9200 os         1 XVM      -0.438000
     44 O35         68.4200    50.9360    12.5100 os         1 XVM      -0.339100
     45 O36         69.6460    60.6550    22.0590 os         1 XVM      -0.313100
     46 O41         66.8580    52.4170    11.4410 os         1 XVM      -0.336100
     47 O44         68.2300    61.4200    24.6870 os         1 XVM      -0.597400
     48 O45         70.7700    61.5140    24.8450 os         1 XVM      -0.597400
     49 O50         69.4340    63.7790    24.6520 o          1 XVM      -0.572000
     50 P43         69.4990    62.3400    24.2660 p5         1 XVM       1.363800
     51 S07         69.7860    54.3940    16.2120 sy         1 XVM       1.165600
     52 H131        72.9650    57.0990    15.0770 h1         1 XVM       0.053700
     53 H151        71.6490    57.1720    17.1840 h1         1 XVM       0.103700
     54 H201        75.8270    58.5310    19.2550 h1         1 XVM       0.087700
     55 H211        76.7940    60.6740    17.8660 h1         1 XVM       0.059700
     56 H212        77.4960    60.2850    19.4620 h1         1 XVM       0.059700
     57 H241        76.2180    61.6030    21.5600 h2         1 XVM       0.080700
     58 H262        72.3170    62.2860    20.5050 h1         1 XVM       0.052200
     59 H261        73.4010    61.9170    19.1300 h1         1 XVM       0.052200
     60 H282        70.2510    59.6020    15.9720 hc         1 XVM       0.060700
     61 H281        69.4870    58.0980    16.4280 hc         1 XVM       0.060700
     62 H031        69.7720    51.8420    14.7230 ha         1 XVM       0.155000
     63 H051        67.7650    55.7140    14.5190 ha         1 XVM       0.140000
     64 H061        66.5110    54.9340    12.5000 ha         1 XVM       0.141000
     65 H112        71.6140    53.7180    13.9130 h1         1 XVM       0.051200
     66 H111        72.0950    53.0920    15.4840 h1         1 XVM       0.051200
     67 H121        69.9770    56.6190    14.7750 h1         1 XVM       0.061700
     68 H122        71.1670    56.0260    13.6500 h1         1 XVM       0.061700
     69 H231        75.2240    59.4180    21.4380 hc         1 XVM       0.078700
     70 H251        72.9600    60.2280    21.6880 hc         1 XVM       0.066700
     71 H252        72.7280    59.6480    20.0570 hc         1 XVM       0.066700
     72 H301        70.0570    57.3150    19.0050 ha         1 XVM       0.124000
     73 H311        69.7800    58.1620    21.3230 ha         1 XVM       0.123000
     74 H331        69.8060    62.2230    19.8360 ha         1 XVM       0.123000
     75 H341        70.1000    61.3850    17.5390 ha         1 XVM       0.124000
     76 H373        74.9520    51.2680    13.6390 hc         1 XVM       0.034700
     77 H372        74.9750    51.9410    15.2760 hc         1 XVM       0.034700
     78 H371        73.4300    51.4790    14.5200 hc         1 XVM       0.034700
     79 H381        73.5540    55.3100    14.0170 hc         1 XVM       0.042700
     80 H392        75.2930    53.7150    13.5030 hc         1 XVM       0.037700
     81 H391        73.7680    53.2630    12.7670 hc         1 XVM       0.037700
     82 H401        73.8380    55.5050    16.4820 hc         1 XVM       0.045033
     83 H402        74.3270    53.8100    16.5850 hc         1 XVM       0.045033
     84 H403        75.3490    54.9800    15.7210 hc         1 XVM       0.045033
     85 H422        70.5360    62.5660    22.1160 h1         1 XVM       0.064700
     86 H421        68.7550    62.5660    21.9900 h1         1 XVM       0.064700
     87 H462        66.3860    61.1090    25.6050 h1         1 XVM       0.043700
     88 H461        66.6810    62.7720    25.0840 h1         1 XVM       0.043700
     89 H472        72.1580    61.6080    26.3990 h1         1 XVM       0.043700
     90 H471        70.5520    62.2460    26.8020 h1         1 XVM       0.043700
     91 H481        66.7920    62.5220    27.5690 hc         1 XVM       0.051200
     92 H483        68.1240    61.3730    27.4240 hc         1 XVM       0.051200
     93 H482        68.3450    63.0800    26.9490 hc         1 XVM       0.051200
     94 H491        70.7990    60.0260    27.8490 hc         1 XVM       0.051200
     95 H492        69.6200    59.8570    26.5290 hc         1 XVM       0.051200
     96 H493        71.2890    59.3000    26.3040 hc         1 XVM       0.051200
     97 H512        66.7560    50.3100    11.3730 h2         1 XVM       0.071200
     98 H511        68.0980    51.0480    10.4350 h2         1 XVM       0.071200
     99 H161        72.8040    59.8670    16.6090 hn         1 XVM       0.320500
    100 H141        72.5650    59.1170    14.2160 ho         1 XVM       0.451000
@<TRIPOS>BOND
     1     1     2 1   
     2     1    16 1   
     3     1    39 1   
     4     1    52 1   
     5     2     8 1   
     6     2    36 1   
     7     2    53 1   
     8     3    36 1   
     9     3    40 2   
    10     3    41 1   
    11     4     5 1   
    12     4    17 1   
    13     4    41 1   
    14     4    54 1   
    15     5    42 1   
    16     5    55 1   
    17     5    56 1   
    18     6    17 1   
    19     6    42 1   
    20     6    43 1   
    21     6    57 1   
    22     7    18 1   
    23     7    43 1   
    24     7    58 1   
    25     7    59 1   
    26     8    19 1   
    27     8    60 1   
    28     8    61 1   
    29     9    10 ar  
    30     9    14 ar  
    31     9    46 1   
    32    10    11 ar  
    33    10    44 1   
    34    11    12 ar  
    35    11    62 1   
    36    12    13 ar  
    37    12    51 1   
    38    13    14 ar  
    39    13    63 1   
    40    14    64 1   
    41    15    26 1   
    42    15    35 1   
    43    15    65 1   
    44    15    66 1   
    45    16    35 1   
    46    16    67 1   
    47    16    68 1   
    48    17    18 1   
    49    17    69 1   
    50    18    70 1   
    51    18    71 1   
    52    19    20 ar  
    53    19    24 ar  
    54    20    21 ar  
    55    20    72 1   
    56    21    22 ar  
    57    21    73 1   
    58    22    23 ar  
    59    22    45 1   
    60    23    24 ar  
    61    23    74 1   
    62    24    75 1   
    63    25    27 1   
    64    25    76 1   
    65    25    77 1   
    66    25    78 1   
    67    26    27 1   
    68    26    28 1   
    69    26    79 1   
    70    27    80 1   
    71    27    81 1   
    72    28    82 1   
    73    28    83 1   
    74    28    84 1   
    75    29    45 1   
    76    29    50 1   
    77    29    85 1   
    78    29    86 1   
    79    30    32 1   
    80    30    47 1   
    81    30    87 1   
    82    30    88 1   
    83    31    33 1   
    84    31    48 1   
    85    31    89 1   
    86    31    90 1   
    87    32    91 1   
    88    32    92 1   
    89    32    93 1   
    90    33    94 1   
    91    33    95 1   
    92    33    96 1   
    93    34    44 1   
    94    34    46 1   
    95    34    97 1   
    96    34    98 1   
    97    35    51 1   
    98    36    99 1   
    99    37    51 2   
   100    38    51 2   
   101    39   100 1   
   102    47    50 1   
   103    48    50 1   
   104    49    50 2   
@<TRIPOS>SUBSTRUCTURE
     1 XVM         1 TEMP              0 ****  ****    0 ROOT
