@<TRIPOS>MOLECULE
XVO
   43    44     1     0     0
SMALL
No Charge or Current Charge


@<TRIPOS>ATOM
      1 C02        116.3370   243.1720   359.5720 ca         1 XVO       0.594900
      2 C03        115.4990   243.9560   360.3690 ca         1 XVO      -0.226000
      3 C04        115.9940   245.1740   360.8560 ca         1 XVO      -0.034000
      4 C05        117.3090   245.5260   360.5090 ca         1 XVO      -0.211000
      5 C06        118.0660   244.6570   359.6990 ca         1 XVO       0.391300
      6 C07        119.4970   245.0040   359.3140 c3         1 XVO      -0.123700
      7 C08        120.5110   244.6230   360.4200 c3         1 XVO      -0.027100
      8 C11        122.9540   244.6200   361.1170 ca         1 XVO       0.119000
      9 C12        124.3160   244.8970   360.8980 ca         1 XVO       0.137000
     10 C13        124.7320   245.5030   359.7040 ca         1 XVO      -0.130000
     11 C14        123.7850   245.8380   358.7200 ca         1 XVO      -0.063300
     12 C15        122.4210   245.5580   358.9390 ca         1 XVO      -0.104000
     13 C16        121.9870   244.9460   360.1400 ca         1 XVO      -0.076300
     14 C18        124.4860   245.4460   356.3070 c3         1 XVO       0.164800
     15 C20        126.0030   246.8380   354.9070 c3         1 XVO       0.148100
     16 C21        124.7650   244.9690   353.9100 c3         1 XVO       0.148100
     17 F11        122.5710   244.0330   362.2780 f          1 XVO      -0.168000
     18 F12        125.2370   244.5810   361.8370 f          1 XVO      -0.167000
     19 N01        117.5800   243.4830   359.2360 nb         1 XVO      -0.749000
     20 N02        115.9780   241.9930   359.0600 nv         1 XVO      -1.055900
     21 N19        124.7730   246.0110   354.9620 n3         1 XVO      -0.717600
     22 H1         114.4900   243.6300   360.6030 ha         1 XVO       0.121000
     23 H2         115.3830   245.8220   361.4810 ha         1 XVO       0.116000
     24 H3         117.7390   246.4580   360.8630 ha         1 XVO       0.123000
     25 H4         119.7680   244.4940   358.3810 hc         1 XVO       0.057200
     26 H5         119.5640   246.0800   359.1150 hc         1 XVO       0.057200
     27 H6         120.2080   245.1240   361.3480 hc         1 XVO       0.067200
     28 H7         120.4120   243.5470   360.6150 hc         1 XVO       0.067200
     29 H8         125.7870   245.7100   359.5470 ha         1 XVO       0.134000
     30 H9         121.7100   245.8220   358.1610 ha         1 XVO       0.123000
     31 H10        125.1420   247.0760   357.5910 hc         1 XVO       0.057700
     32 H11        123.4690   247.1990   357.0720 hc         1 XVO       0.057700
     33 H12        123.5900   244.8140   356.2440 h1         1 XVO       0.035200
     34 H13        125.3120   244.7940   356.6240 h1         1 XVO       0.035200
     35 H14        125.9310   247.7050   355.5760 h1         1 XVO       0.031867
     36 H15        126.8850   246.2500   355.1970 h1         1 XVO       0.031867
     37 H16        126.1670   247.2210   353.8910 h1         1 XVO       0.031867
     38 H17        123.8120   244.4240   353.9090 h1         1 XVO       0.031867
     39 H18        124.8960   245.4180   352.9160 h1         1 XVO       0.031867
     40 H19        125.5750   244.2450   354.0700 h1         1 XVO       0.031867
     41 H20        116.7470   241.4330   358.7110 hn         1 XVO       0.469500
     42 H21        115.2210   241.4930   359.5130 hn         1 XVO       0.469500
     43 C17        124.2320   246.4910   357.4180 c3         1 XVO      -0.033100
@<TRIPOS>BOND
     1     1     2 ar  
     2     1    19 ar  
     3     1    20 1   
     4     2     3 ar  
     5     2    22 1   
     6     3     4 ar  
     7     3    23 1   
     8     4     5 ar  
     9     4    24 1   
    10     5     6 1   
    11     5    19 ar  
    12     6     7 1   
    13     6    25 1   
    14     6    26 1   
    15     7    13 1   
    16     7    27 1   
    17     7    28 1   
    18     8     9 ar  
    19     8    13 ar  
    20     8    17 1   
    21     9    10 ar  
    22     9    18 1   
    23    10    11 ar  
    24    10    29 1   
    25    11    12 ar  
    26    11    43 1   
    27    12    13 ar  
    28    12    30 1   
    29    14    21 1   
    30    14    33 1   
    31    14    34 1   
    32    14    43 1   
    33    15    21 1   
    34    15    35 1   
    35    15    36 1   
    36    15    37 1   
    37    16    21 1   
    38    16    38 1   
    39    16    39 1   
    40    16    40 1   
    41    20    41 1   
    42    20    42 1   
    43    31    43 1   
    44    32    43 1   
@<TRIPOS>SUBSTRUCTURE
     1 XVO         1 TEMP              0 ****  ****    0 ROOT
