@<TRIPOS>MOLECULE
XVO
   43    44     1     0     0
SMALL
abcg2


@<TRIPOS>ATOM
      1 C02        116.5520   243.0550   359.7920 ca         1 XVO       0.594900
      2 C03        115.5710   243.9300   360.2950 ca         1 XVO      -0.226000
      3 C04        115.9070   245.2560   360.4660 ca         1 XVO      -0.034000
      4 C05        117.1920   245.6930   360.1420 ca         1 XVO      -0.211000
      5 C06        118.1020   244.7630   359.6560 ca         1 XVO       0.391300
      6 C07        119.5160   245.1520   359.3140 c3         1 XVO      -0.123700
      7 C08        120.5010   244.6550   360.3750 c3         1 XVO      -0.027100
      8 C11        122.9210   244.4810   360.9770 ca         1 XVO       0.119000
      9 C12        124.2680   244.6960   360.7530 ca         1 XVO       0.137000
     10 C13        124.7060   245.3680   359.6280 ca         1 XVO      -0.130000
     11 C14        123.7670   245.8350   358.7100 ca         1 XVO      -0.063300
     12 C15        122.4110   245.6070   358.9500 ca         1 XVO      -0.104000
     13 C16        121.9560   244.9280   360.0810 ca         1 XVO      -0.076300
     14 C18        124.4040   245.5230   356.3050 c3         1 XVO       0.164800
     15 C20        126.1220   246.6910   355.0560 c3         1 XVO       0.148100
     16 C21        124.6170   245.2050   353.9360 c3         1 XVO       0.148100
     17 F11        122.5470   243.8210   362.1000 f          1 XVO      -0.168000
     18 F12        125.1600   244.2320   361.6590 f          1 XVO      -0.167000
     19 N01        117.7860   243.4700   359.4870 nb         1 XVO      -0.749000
     20 N02        116.2620   241.7340   359.5460 nv         1 XVO      -1.055900
     21 N19        124.7690   246.1490   355.0370 n3         1 XVO      -0.717600
     22 H1         114.5820   243.5590   360.5330 ha         1 XVO       0.121000
     23 H2         115.1730   245.9550   360.8500 ha         1 XVO       0.116000
     24 H3         117.4810   246.7280   360.2650 ha         1 XVO       0.123000
     25 H4         119.7710   244.7170   358.3450 hc         1 XVO       0.057200
     26 H5         119.5820   246.2370   359.2200 hc         1 XVO       0.057200
     27 H6         120.2460   245.1040   361.3400 hc         1 XVO       0.067200
     28 H7         120.3670   243.5780   360.5050 hc         1 XVO       0.067200
     29 H8         125.7670   245.5210   359.4810 ha         1 XVO       0.134000
     30 H9         121.6920   245.9730   358.2310 ha         1 XVO       0.123000
     31 H10        125.1430   247.0620   357.6390 hc         1 XVO       0.057700
     32 H11        123.4650   247.2620   357.1420 hc         1 XVO       0.057700
     33 H12        123.4640   244.9900   356.1540 h1         1 XVO       0.035200
     34 H13        125.1560   244.7710   356.6060 h1         1 XVO       0.035200
     35 H14        126.2180   247.4640   355.8180 h1         1 XVO       0.031867
     36 H15        126.8780   245.9120   355.2580 h1         1 XVO       0.031867
     37 H16        126.3470   247.1410   354.0890 h1         1 XVO       0.031867
     38 H17        123.5880   244.8430   353.8970 h1         1 XVO       0.031867
     39 H18        124.8460   245.7010   352.9920 h1         1 XVO       0.031867
     40 H19        125.2850   244.3330   354.0340 h1         1 XVO       0.031867
     41 H20        117.0590   241.1220   359.4500 hn         1 XVO       0.469500
     42 H21        115.4800   241.3330   360.0380 hn         1 XVO       0.469500
     43 C17        124.2130   246.5270   357.4480 c3         1 XVO      -0.033100
@<TRIPOS>BOND
     1     1     2 ar  
     2     1    19 ar  
     3     1    20 1   
     4     2     3 ar  
     5     2    22 1   
     6     3     4 ar  
     7     3    23 1   
     8     4     5 ar  
     9     4    24 1   
    10     5     6 1   
    11     5    19 ar  
    12     6     7 1   
    13     6    25 1   
    14     6    26 1   
    15     7    13 1   
    16     7    27 1   
    17     7    28 1   
    18     8     9 ar  
    19     8    13 ar  
    20     8    17 1   
    21     9    10 ar  
    22     9    18 1   
    23    10    11 ar  
    24    10    29 1   
    25    11    12 ar  
    26    11    43 1   
    27    12    13 ar  
    28    12    30 1   
    29    14    21 1   
    30    14    33 1   
    31    14    34 1   
    32    14    43 1   
    33    15    21 1   
    34    15    35 1   
    35    15    36 1   
    36    15    37 1   
    37    16    21 1   
    38    16    38 1   
    39    16    39 1   
    40    16    40 1   
    41    20    41 1   
    42    20    42 1   
    43    31    43 1   
    44    32    43 1   
@<TRIPOS>SUBSTRUCTURE
     1 XVO         1 TEMP              0 ****  ****    0 ROOT
