@<TRIPOS>MOLECULE
XVP
  101   104     1     0     0
SMALL
No Charge or Current Charge


@<TRIPOS>ATOM
      1 C13         20.1380    -1.1330    15.2330 c3         1 XVP       0.158300
      2 C15         19.9710    -0.7060    16.7260 c3         1 XVP       0.099700
      3 C17         22.0410    -0.2940    18.0980 c          1 XVP       0.640100
      4 C20         23.8960     0.5130    19.3640 c5         1 XVP       0.161300
      5 C21         25.0790     1.4730    19.0650 c5         1 XVP       0.152600
      6 C24         24.1480     2.3780    20.9770 c5         1 XVP       0.369300
      7 C26         21.9170     2.8260    20.5730 c5         1 XVP       0.150600
      8 C28         18.6370     0.0180    17.0610 c3         1 XVP      -0.037100
      9 C01         15.5200    -5.3180    12.3670 ca         1 XVP      -0.032300
     10 C02         15.3490    -4.0740    13.0040 ca         1 XVP      -0.116000
     11 C03         16.0880    -3.7540    14.1560 ca         1 XVP      -0.020000
     12 C04         17.0120    -4.6810    14.6810 ca         1 XVP      -0.302500
     13 C05         17.1810    -5.9300    14.0500 ca         1 XVP      -0.020000
     14 C06         16.4390    -6.2430    12.8980 ca         1 XVP      -0.116000
     15 C11         20.2160    -4.5620    14.7290 c3         1 XVP       0.192800
     16 C12         19.1790    -2.2860    14.8030 c3         1 XVP       0.203800
     17 C23         23.4570     0.9820    20.8130 c5         1 XVP      -0.146700
     18 C25         21.9290     1.3270    20.9470 c5         1 XVP      -0.104400
     19 C29         18.5260     0.3710    18.5420 ca         1 XVP      -0.112300
     20 C30         18.3940    -0.6490    19.5030 ca         1 XVP      -0.070500
     21 C31         18.3410    -0.3310    20.8700 ca         1 XVP      -0.164500
     22 C32         18.4210     1.0060    21.2910 ca         1 XVP       0.130100
     23 C33         18.5250     2.0330    20.3290 ca         1 XVP      -0.164500
     24 C34         18.5800     1.7140    18.9620 ca         1 XVP      -0.070500
     25 C37         21.6950    -4.1680    14.4600 c3         1 XVP      -0.056700
     26 C38         22.3960    -5.1520    13.4800 c3         1 XVP      -0.076400
     27 C39         22.4960    -3.9810    15.7740 c3         1 XVP      -0.089100
     28 C45         20.6160     4.6390    24.6780 c3         1 XVP       0.217600
     29 C46         20.3020     0.9570    26.6400 c3         1 XVP       0.217600
     30 C47         19.9700     5.6840    23.7470 c3         1 XVP      -0.111100
     31 C48         20.6010     2.0490    27.6880 c3         1 XVP      -0.111100
     32 N10         19.3960    -3.5880    15.5050 n3         1 XVP      -0.717500
     33 N16         21.1130     0.1060    17.1790 ns         1 XVP      -0.506900
     34 O14         19.9650    -0.0010    14.3560 oh         1 XVP      -0.668000
     35 O18         22.0880    -1.4010    18.6110 o          1 XVP      -0.537000
     36 O19         22.8760     0.7580    18.3500 os         1 XVP      -0.458100
     37 O22         24.6930     2.7090    19.6890 os         1 XVP      -0.459000
     38 O27         23.0860     3.3080    21.2570 os         1 XVP      -0.446000
     39 O35         18.4220     1.2610    22.6470 os         1 XVP      -0.312100
     40 O43         19.5880     3.9910    25.4440 os         1 XVP      -0.615400
     41 O44         20.0950     1.5420    25.3430 os         1 XVP      -0.615400
     42 O49         17.6060     2.2790    25.7310 o          1 XVP      -0.530000
     43 O50         15.4110    -5.2550     9.9380 oh         1 XVP      -0.656000
     44 P42         18.8900     2.5820    25.0340 p5         1 XVP       1.362800
     45 S07         17.9700    -4.2750    16.1550 sy         1 XVP       1.150600
     46 H131        21.1630    -1.5020    15.1260 h1         1 XVP       0.052700
     47 H151        19.9760    -1.6370    17.3090 h1         1 XVP       0.100700
     48 H201        24.2390    -0.5310    19.3310 h1         1 XVP       0.088700
     49 H211        25.2470     1.6260    17.9910 h1         1 XVP       0.061200
     50 H212        26.0120     1.1150    19.5220 h1         1 XVP       0.061200
     51 H241        24.9240     2.3880    21.7550 h2         1 XVP       0.077700
     52 H262        21.0250     3.3570    20.9290 h1         1 XVP       0.051700
     53 H261        22.0250     2.9920    19.4920 h1         1 XVP       0.051700
     54 H282        18.5540     0.9250    16.4500 hc         1 XVP       0.065700
     55 H281        17.7890    -0.6130    16.7750 hc         1 XVP       0.065700
     56 H021        14.6410    -3.3520    12.6050 ha         1 XVP       0.125000
     57 H031        15.9350    -2.7880    14.6340 ha         1 XVP       0.134000
     58 H051        17.8860    -6.6610    14.4450 ha         1 XVP       0.134000
     59 H061        16.5800    -7.2080    12.4160 ha         1 XVP       0.125000
     60 H112        19.7320    -4.7570    13.7630 h1         1 XVP       0.054200
     61 H111        20.2490    -5.5230    15.2580 h1         1 XVP       0.054200
     62 H1          19.2810    -2.4300    13.7180 h1         1 XVP       0.062700
     63 H2          18.1560    -1.9180    14.9460 h1         1 XVP       0.062700
     64 H231        23.7910     0.2740    21.5800 hc         1 XVP       0.077700
     65 H251        21.5960     1.2010    21.9830 hc         1 XVP       0.073200
     66 H252        21.2530     0.7200    20.3390 hc         1 XVP       0.073200
     67 H301        18.3460    -1.6910    19.1910 ha         1 XVP       0.120500
     68 H311        18.2580    -1.1240    21.6090 ha         1 XVP       0.123500
     69 H331        18.5740     3.0770    20.6250 ha         1 XVP       0.123500
     70 H341        18.6800     2.5130    18.2300 ha         1 XVP       0.120500
     71 H361        23.0380    -7.2180    13.2110 hc         1 XVP       0.034367
     72 H363        23.1120    -6.6730    14.8940 hc         1 XVP       0.034367
     73 H362        21.5430    -7.0640    14.1470 hc         1 XVP       0.034367
     74 H371        21.6930    -3.2060    13.9360 hc         1 XVP       0.043700
     75 H382        23.3990    -4.7710    13.2530 hc         1 XVP       0.038700
     76 H381        21.8500    -5.1520    12.5290 hc         1 XVP       0.038700
     77 H393        22.0470    -3.2040    16.4010 hc         1 XVP       0.043700
     78 H391        22.5150    -4.9070    16.3600 hc         1 XVP       0.043700
     79 H392        23.5300    -3.6860    15.5610 hc         1 XVP       0.043700
     80 H402        13.7340    -5.1670    11.1760 h1         1 XVP       0.033700
     81 H401        14.5270    -6.7460    11.0990 h1         1 XVP       0.033700
     82 H411        19.7550     2.8680    22.7960 h1         1 XVP       0.064700
     83 H412        18.0260     3.3120    22.9050 h1         1 XVP       0.064700
     84 H452        21.2010     3.9190    24.0890 h1         1 XVP       0.045700
     85 H451        21.3140     5.1510    25.3530 h1         1 XVP       0.045700
     86 H462        19.4220     0.3790    26.9540 h1         1 XVP       0.045700
     87 H461        21.1530     0.2650    26.6000 h1         1 XVP       0.045700
     88 H473        20.7510     6.2510    23.2270 hc         1 XVP       0.046867
     89 H472        19.3310     5.2240    22.9880 hc         1 XVP       0.046867
     90 H471        19.3680     6.3920    24.3280 hc         1 XVP       0.046867
     91 H483        20.9100     1.5830    28.6310 hc         1 XVP       0.046867
     92 H481        21.4140     2.7000    27.3490 hc         1 XVP       0.046867
     93 H482        19.7160     2.6610    27.8960 hc         1 XVP       0.046867
     94 H161        21.1820     1.0700    16.8830 hn         1 XVP       0.321500
     95 H141        20.7530     0.5740    14.4680 ho         1 XVP       0.451000
     96 H501        14.8440    -5.5030     9.1740 ho         1 XVP       0.450000
     97 C40         14.7120    -5.6640    11.1210 c3         1 XVP       0.200900
     98 C36         22.5270    -6.6130    13.9690 c3         1 XVP      -0.091100
     99 C41         18.7770     2.5610    23.1780 c3         1 XVP      -0.190400
    100 O08         17.3040    -3.2040    16.9030 o          1 XVP      -0.533000
    101 O09         18.3780    -5.5090    16.8360 o          1 XVP      -0.533000
@<TRIPOS>BOND
     1     1     2 1   
     2     1    16 1   
     3     1    34 1   
     4     1    46 1   
     5     2     8 1   
     6     2    33 1   
     7     2    47 1   
     8     3    33 1   
     9     3    35 2   
    10     3    36 1   
    11     4     5 1   
    12     4    17 1   
    13     4    36 1   
    14     4    48 1   
    15     5    37 1   
    16     5    49 1   
    17     5    50 1   
    18     6    17 1   
    19     6    37 1   
    20     6    38 1   
    21     6    51 1   
    22     7    18 1   
    23     7    38 1   
    24     7    52 1   
    25     7    53 1   
    26     8    19 1   
    27     8    54 1   
    28     8    55 1   
    29     9    10 ar  
    30     9    14 ar  
    31     9    97 1   
    32    10    11 ar  
    33    10    56 1   
    34    11    12 ar  
    35    11    57 1   
    36    12    13 ar  
    37    12    45 1   
    38    13    14 ar  
    39    13    58 1   
    40    14    59 1   
    41    15    25 1   
    42    15    32 1   
    43    15    60 1   
    44    15    61 1   
    45    16    32 1   
    46    16    62 1   
    47    16    63 1   
    48    17    18 1   
    49    17    64 1   
    50    18    65 1   
    51    18    66 1   
    52    19    20 ar  
    53    19    24 ar  
    54    20    21 ar  
    55    20    67 1   
    56    21    22 ar  
    57    21    68 1   
    58    22    23 ar  
    59    22    39 1   
    60    23    24 ar  
    61    23    69 1   
    62    24    70 1   
    63    25    26 1   
    64    25    27 1   
    65    25    74 1   
    66    26    75 1   
    67    26    76 1   
    68    26    98 1   
    69    27    77 1   
    70    27    78 1   
    71    27    79 1   
    72    28    30 1   
    73    28    40 1   
    74    28    84 1   
    75    28    85 1   
    76    29    31 1   
    77    29    41 1   
    78    29    86 1   
    79    29    87 1   
    80    30    88 1   
    81    30    89 1   
    82    30    90 1   
    83    31    91 1   
    84    31    92 1   
    85    31    93 1   
    86    32    45 1   
    87    33    94 1   
    88    34    95 1   
    89    39    99 1   
    90    40    44 1   
    91    41    44 1   
    92    42    44 2   
    93    43    96 1   
    94    43    97 1   
    95    44    99 1   
    96    45   100 2   
    97    45   101 2   
    98    71    98 1   
    99    72    98 1   
   100    73    98 1   
   101    80    97 1   
   102    81    97 1   
   103    82    99 1   
   104    83    99 1   
@<TRIPOS>SUBSTRUCTURE
     1 XVP         1 TEMP              0 ****  ****    0 ROOT
