@<TRIPOS>MOLECULE
XVP
  101   104     1     0     0
SMALL
bcc


@<TRIPOS>ATOM
      1 C13         20.3320    -1.0130    15.3950 c3         1 XVP       0.135100
      2 C15         20.0160    -0.6190    16.8440 c3         1 XVP       0.099700
      3 C17         21.9240    -0.2320    18.3550 c          1 XVP       0.756100
      4 C20         23.6100     0.5570    19.8350 c5         1 XVP       0.138100
      5 C21         24.8580     1.4000    19.6460 c5         1 XVP       0.129400
      6 C24         23.6980     2.5490    21.2360 c5         1 XVP       0.322900
      7 C26         21.5310     2.9740    20.6630 c5         1 XVP       0.127400
      8 C28         18.6990     0.1450    17.0160 c3         1 XVP      -0.037100
      9 C01         15.6940    -5.1820    12.4660 ca         1 XVP      -0.032300
     10 C02         15.5220    -3.9300    13.0480 ca         1 XVP      -0.134000
     11 C03         16.2150    -3.5720    14.1930 ca         1 XVP      -0.038000
     12 C04         17.1000    -4.4800    14.7600 ca         1 XVP      -0.302500
     13 C05         17.2730    -5.7430    14.2050 ca         1 XVP      -0.038000
     14 C06         16.5710    -6.0860    13.0620 ca         1 XVP      -0.134000
     15 C11         20.3180    -4.3600    14.7400 c3         1 XVP       0.192800
     16 C12         19.3960    -2.0650    14.7990 c3         1 XVP       0.203800
     17 C23         23.0130     1.1630    21.1170 c5         1 XVP      -0.146700
     18 C25         21.5270     1.5210    21.1150 c5         1 XVP      -0.104400
     19 C29         18.4210     0.4640    18.4600 ca         1 XVP      -0.112300
     20 C30         18.2580    -0.5500    19.4060 ca         1 XVP      -0.088500
     21 C31         18.0600    -0.2650    20.7440 ca         1 XVP      -0.182500
     22 C32         18.0110     1.0600    21.1760 ca         1 XVP       0.130100
     23 C33         18.1190     2.0840    20.2460 ca         1 XVP      -0.182500
     24 C34         18.3380     1.7750    18.9070 ca         1 XVP      -0.088500
     25 C37         21.8180    -4.0900    14.8220 c3         1 XVP      -0.056700
     26 C38         22.5670    -5.0640    13.9030 c3         1 XVP      -0.076400
     27 C39         22.3200    -4.1400    16.2590 c3         1 XVP      -0.089100
     28 C45         20.3460     4.4000    24.6360 c3         1 XVP       0.194400
     29 C46         20.8220     0.8390    25.5890 c3         1 XVP       0.194400
     30 C47         19.8440     5.7010    24.0570 c3         1 XVP      -0.111100
     31 C48         22.2790     0.9390    25.2100 c3         1 XVP      -0.111100
     32 N10         19.4970    -3.3720    15.4550 n3         1 XVP      -0.717500
     33 N16         21.1010     0.1840    17.3760 ns         1 XVP      -0.573900
     34 O14         20.2620     0.0860    14.5150 oh         1 XVP      -0.605800
     35 O18         21.9230    -1.3370    18.8570 o          1 XVP      -0.586000
     36 O19         22.7700     0.7510    18.7010 os         1 XVP      -0.434900
     37 O22         24.5080     2.6920    20.0920 os         1 XVP      -0.412600
     38 O27         22.7070     3.5170    21.2510 os         1 XVP      -0.399600
     39 O35         17.8600     1.2520    22.5110 os         1 XVP      -0.288900
     40 O43         19.2620     3.6820    25.2540 os         1 XVP      -0.592200
     41 O44         20.0220     1.3430    24.5030 os         1 XVP      -0.592200
     42 O49         17.7300     1.7210    25.7100 o          1 XVP      -0.759300
     43 O50         15.7000    -6.3910    10.4200 oh         1 XVP      -0.593800
     44 P42         18.7320     2.2530    24.7620 p5         1 XVP       1.434300
     45 S07         18.1060    -3.9800    16.1310 sy         1 XVP       1.292200
     46 H131        21.3470    -1.4290    15.4080 h1         1 XVP       0.052700
     47 H151        19.9820    -1.5390    17.4290 h1         1 XVP       0.100700
     48 H201        23.8480    -0.5000    19.9490 h1         1 XVP       0.088700
     49 H211        25.1950     1.4530    18.6100 h1         1 XVP       0.061200
     50 H212        25.6710     0.9750    20.2470 h1         1 XVP       0.061200
     51 H241        24.3030     2.6700    22.1420 h2         1 XVP       0.077700
     52 H262        20.6790     3.5490    21.0260 h1         1 XVP       0.051700
     53 H261        21.5530     3.0600    19.5710 h1         1 XVP       0.051700
     54 H282        18.7370     1.0700    16.4370 hc         1 XVP       0.065700
     55 H281        17.8830    -0.4480    16.6020 hc         1 XVP       0.065700
     56 H021        14.8430    -3.2160    12.5990 ha         1 XVP       0.143000
     57 H031        16.0610    -2.5940    14.6270 ha         1 XVP       0.152000
     58 H051        17.9470    -6.4610    14.6520 ha         1 XVP       0.152000
     59 H061        16.7130    -7.0700    12.6360 ha         1 XVP       0.143000
     60 H112        20.0050    -4.3990    13.6890 h1         1 XVP       0.054200
     61 H111        20.1310    -5.3430    15.1690 h1         1 XVP       0.054200
     62 H1          19.6590    -2.1920    13.7450 h1         1 XVP       0.062700
     63 H2          18.3700    -1.6920    14.8090 h1         1 XVP       0.062700
     64 H231        23.2700     0.5220    21.9600 hc         1 XVP       0.077700
     65 H251        21.1400     1.4510    22.1320 hc         1 XVP       0.073200
     66 H252        20.8980     0.8850    20.4950 hc         1 XVP       0.073200
     67 H301        18.2910    -1.5870    19.0950 ha         1 XVP       0.138500
     68 H311        17.9600    -1.0660    21.4650 ha         1 XVP       0.141500
     69 H331        18.0500     3.1250    20.5360 ha         1 XVP       0.141500
     70 H341        18.4450     2.5880    18.1980 ha         1 XVP       0.138500
     71 H361        23.0360    -7.1440    13.5650 hc         1 XVP       0.034367
     72 H363        22.7900    -6.7570    15.2600 hc         1 XVP       0.034367
     73 H362        21.4100    -6.8990    14.1740 hc         1 XVP       0.034367
     74 H371        22.0180    -3.0920    14.4180 hc         1 XVP       0.043700
     75 H382        23.6240    -4.7850    13.9140 hc         1 XVP       0.038700
     76 H381        22.2260    -4.9060    12.8750 hc         1 XVP       0.038700
     77 H393        21.8800    -3.3520    16.8700 hc         1 XVP       0.043700
     78 H391        22.0790    -5.0920    16.7350 hc         1 XVP       0.043700
     79 H392        23.4030    -4.0150    16.2960 hc         1 XVP       0.043700
     80 H402        14.6130    -4.6400    10.7110 h1         1 XVP       0.033700
     81 H401        13.9920    -6.0530    11.5500 h1         1 XVP       0.033700
     82 H411        18.9810     3.0080    22.4900 h1         1 XVP       0.064700
     83 H412        17.3160     3.1910    23.0440 h1         1 XVP       0.064700
     84 H452        20.8320     3.7990    23.8630 h1         1 XVP       0.045700
     85 H451        21.0860     4.5810    25.4160 h1         1 XVP       0.045700
     86 H462        20.6300     1.3970    26.5080 h1         1 XVP       0.045700
     87 H461        20.5330    -0.1980    25.7650 h1         1 XVP       0.045700
     88 H473        20.6840     6.2590    23.6420 hc         1 XVP       0.046867
     89 H472        19.1250     5.5340    23.2530 hc         1 XVP       0.046867
     90 H471        19.3730     6.3210    24.8200 hc         1 XVP       0.046867
     91 H483        22.8900     0.5120    26.0050 hc         1 XVP       0.046867
     92 H481        22.4910     0.3890    24.2930 hc         1 XVP       0.046867
     93 H482        22.5850     1.9770    25.0720 hc         1 XVP       0.046867
     94 H161        21.1440     1.1570    17.1110 hn         1 XVP       0.321500
     95 H141        21.0290     0.6500    14.6550 ho         1 XVP       0.412000
     96 H501        15.1260    -6.8070     9.7710 ho         1 XVP       0.411000
     97 C40         14.9170    -5.5550    11.2340 c3         1 XVP       0.177700
     98 C36         22.4380    -6.5420    14.2500 c3         1 XVP      -0.091100
     99 C41         18.1780     2.5150    23.0470 c3         1 XVP      -0.055800
    100 O08         17.4330    -2.8840    16.8110 o          1 XVP      -0.603800
    101 O09         18.4700    -5.1630    16.8900 o          1 XVP      -0.603800
@<TRIPOS>BOND
     1     1     2 1   
     2     1    16 1   
     3     1    34 1   
     4     1    46 1   
     5     2     8 1   
     6     2    33 1   
     7     2    47 1   
     8     3    33 1   
     9     3    35 2   
    10     3    36 1   
    11     4     5 1   
    12     4    17 1   
    13     4    36 1   
    14     4    48 1   
    15     5    37 1   
    16     5    49 1   
    17     5    50 1   
    18     6    17 1   
    19     6    37 1   
    20     6    38 1   
    21     6    51 1   
    22     7    18 1   
    23     7    38 1   
    24     7    52 1   
    25     7    53 1   
    26     8    19 1   
    27     8    54 1   
    28     8    55 1   
    29     9    10 ar  
    30     9    14 ar  
    31     9    97 1   
    32    10    11 ar  
    33    10    56 1   
    34    11    12 ar  
    35    11    57 1   
    36    12    13 ar  
    37    12    45 1   
    38    13    14 ar  
    39    13    58 1   
    40    14    59 1   
    41    15    25 1   
    42    15    32 1   
    43    15    60 1   
    44    15    61 1   
    45    16    32 1   
    46    16    62 1   
    47    16    63 1   
    48    17    18 1   
    49    17    64 1   
    50    18    65 1   
    51    18    66 1   
    52    19    20 ar  
    53    19    24 ar  
    54    20    21 ar  
    55    20    67 1   
    56    21    22 ar  
    57    21    68 1   
    58    22    23 ar  
    59    22    39 1   
    60    23    24 ar  
    61    23    69 1   
    62    24    70 1   
    63    25    26 1   
    64    25    27 1   
    65    25    74 1   
    66    26    75 1   
    67    26    76 1   
    68    26    98 1   
    69    27    77 1   
    70    27    78 1   
    71    27    79 1   
    72    28    30 1   
    73    28    40 1   
    74    28    84 1   
    75    28    85 1   
    76    29    31 1   
    77    29    41 1   
    78    29    86 1   
    79    29    87 1   
    80    30    88 1   
    81    30    89 1   
    82    30    90 1   
    83    31    91 1   
    84    31    92 1   
    85    31    93 1   
    86    32    45 1   
    87    33    94 1   
    88    34    95 1   
    89    39    99 1   
    90    40    44 1   
    91    41    44 1   
    92    42    44 2   
    93    43    96 1   
    94    43    97 1   
    95    44    99 1   
    96    45   100 2   
    97    45   101 2   
    98    71    98 1   
    99    72    98 1   
   100    73    98 1   
   101    80    97 1   
   102    81    97 1   
   103    82    99 1   
   104    83    99 1   
@<TRIPOS>SUBSTRUCTURE
     1 XVP         1 TEMP              0 ****  ****    0 ROOT
