@<TRIPOS>MOLECULE
XVR
   37    37     1     0     0
SMALL
No Charge or Current Charge


@<TRIPOS>ATOM
      1 O15         -8.9990    34.6490   -29.0570 o          1 XVR      -0.530100
      2 C11         -9.9040    34.7240   -28.2310 c          1 XVR       0.547100
      3 C12        -10.2500    33.4920   -27.3070 c3         1 XVR       0.090000
      4 O16         -9.3560    32.3910   -27.5890 oh         1 XVR      -0.656000
      5 C13        -11.7090    32.9950   -27.5410 c3         1 XVR      -0.082400
      6 C14        -12.0110    32.4900   -28.9730 c3         1 XVR      -0.094100
      7 C10        -10.6930    36.0380   -28.0550 c3         1 XVR      -0.174400
      8 C9         -11.6800    36.2930   -29.2210 c3         1 XVR      -0.067400
      9 C8         -12.4070    37.6510   -29.1040 c3         1 XVR      -0.075400
     10 C7         -13.4000    37.9060   -30.2620 c3         1 XVR      -0.075400
     11 C4         -14.1290    39.2680   -30.1870 c5         1 XVR       0.179500
     12 C3         -15.0990    39.4740   -31.3420 c2         1 XVR      -0.205200
     13 C2         -16.3160    39.5780   -30.7960 ce         1 XVR      -0.293200
     14 O5         -14.9640    39.3090   -28.9890 os         1 XVR      -0.427100
     15 C1         -16.2750    39.4740   -29.3410 c          1 XVR       0.644300
     16 O6         -17.2210    39.5290   -28.5700 o          1 XVR      -0.480000
     17 C5         -10.0370    33.8520   -25.8130 c3         1 XVR      -0.097100
     18 H1          -8.7780    32.6890   -28.3300 ho         1 XVR       0.467000
     19 H2         -12.4130    33.8010   -27.2980 hc         1 XVR       0.051200
     20 H3         -11.9280    32.1810   -26.8380 hc         1 XVR       0.051200
     21 H4         -13.0710    32.2210   -29.0640 hc         1 XVR       0.038700
     22 H5         -11.7900    33.2540   -29.7270 hc         1 XVR       0.038700
     23 H6         -11.4180    31.5970   -29.2070 hc         1 XVR       0.038700
     24 H7          -9.9750    36.8660   -28.0230 hc         1 XVR       0.067700
     25 H8         -11.2710    36.0190   -27.1260 hc         1 XVR       0.067700
     26 H9         -12.4280    35.4920   -29.2490 hc         1 XVR       0.052200
     27 H10        -11.1350    36.2580   -30.1730 hc         1 XVR       0.052200
     28 H11        -11.6650    38.4580   -29.0830 hc         1 XVR       0.049200
     29 H12        -12.9470    37.6870   -28.1490 hc         1 XVR       0.049200
     30 H13        -14.1410    37.0970   -30.2830 hc         1 XVR       0.054200
     31 H14        -12.8540    37.8470   -31.2110 hc         1 XVR       0.054200
     32 H15        -13.3870    40.0780   -30.1360 h1         1 XVR       0.085700
     33 H16        -14.8540    39.5210   -32.4060 ha         1 XVR       0.212000
     34 H17        -17.2580    39.7270   -31.3220 ha         1 XVR       0.226000
     35 H18        -10.1480    32.9630   -25.1800 hc         1 XVR       0.047033
     36 H19         -9.0310    34.2570   -25.6500 hc         1 XVR       0.047033
     37 H20        -10.7640    34.5940   -25.4640 hc         1 XVR       0.047033
@<TRIPOS>BOND
     1     1     2 2   
     2     2     3 1   
     3     2     7 1   
     4     3     4 1   
     5     3     5 1   
     6     3    17 1   
     7     4    18 1   
     8     5     6 1   
     9     5    19 1   
    10     5    20 1   
    11     6    21 1   
    12     6    22 1   
    13     6    23 1   
    14     7     8 1   
    15     7    24 1   
    16     7    25 1   
    17     8     9 1   
    18     8    26 1   
    19     8    27 1   
    20     9    10 1   
    21     9    28 1   
    22     9    29 1   
    23    10    11 1   
    24    10    30 1   
    25    10    31 1   
    26    11    12 1   
    27    11    14 1   
    28    11    32 1   
    29    12    13 2   
    30    12    33 1   
    31    13    15 1   
    32    13    34 1   
    33    14    15 1   
    34    15    16 2   
    35    17    35 1   
    36    17    36 1   
    37    17    37 1   
@<TRIPOS>SUBSTRUCTURE
     1 XVR         1 TEMP              0 ****  ****    0 ROOT
