@<TRIPOS>MOLECULE
XVR
   37    37     1     0     0
SMALL
abcg2


@<TRIPOS>ATOM
      1 O15         -9.7790    34.3490   -29.5440 o          1 XVR      -0.530100
      2 C11        -10.3320    34.4960   -28.4740 c          1 XVR       0.547100
      3 C12        -10.1050    33.4590   -27.3730 c3         1 XVR       0.090000
      4 O16         -9.1810    32.5050   -27.8300 oh         1 XVR      -0.656000
      5 C13        -11.4400    32.7620   -27.0500 c3         1 XVR      -0.082400
      6 C14        -12.1330    32.1520   -28.2590 c3         1 XVR      -0.094100
      7 C10        -11.2320    35.6660   -28.1940 c3         1 XVR      -0.174400
      8 C9         -11.7810    36.3470   -29.4400 c3         1 XVR      -0.067400
      9 C8         -12.6950    37.5110   -29.0800 c3         1 XVR      -0.075400
     10 C7         -13.2840    38.1770   -30.3170 c3         1 XVR      -0.075400
     11 C4         -14.1470    39.3880   -29.9960 c5         1 XVR       0.179500
     12 C3         -14.7680    40.0140   -31.1990 c2         1 XVR      -0.205200
     13 C2         -16.0910    39.9660   -31.0940 ce         1 XVR      -0.293200
     14 O5         -15.2690    39.0140   -29.1920 os         1 XVR      -0.427100
     15 C1         -16.4190    39.3280   -29.8110 c          1 XVR       0.644300
     16 O6         -17.4910    39.0920   -29.3200 o          1 XVR      -0.480000
     17 C5          -9.5440    34.1410   -26.1240 c3         1 XVR      -0.097100
     18 H1          -8.9660    32.7280   -28.7470 ho         1 XVR       0.467000
     19 H2         -12.1100    33.4650   -26.5490 hc         1 XVR       0.051200
     20 H3         -11.2210    31.9830   -26.3140 hc         1 XVR       0.051200
     21 H4         -12.9960    31.5620   -27.9490 hc         1 XVR       0.038700
     22 H5         -12.5000    32.9130   -28.9510 hc         1 XVR       0.038700
     23 H6         -11.4640    31.4920   -28.8120 hc         1 XVR       0.038700
     24 H7         -10.6470    36.3820   -27.6030 hc         1 XVR       0.067700
     25 H8         -12.0480    35.3580   -27.5370 hc         1 XVR       0.067700
     26 H9         -12.3380    35.6200   -30.0400 hc         1 XVR       0.052200
     27 H10        -10.9600    36.7040   -30.0650 hc         1 XVR       0.052200
     28 H11        -12.1360    38.2490   -28.4960 hc         1 XVR       0.049200
     29 H12        -13.5010    37.1520   -28.4340 hc         1 XVR       0.049200
     30 H13        -13.8710    37.4570   -30.8950 hc         1 XVR       0.054200
     31 H14        -12.4760    38.5200   -30.9700 hc         1 XVR       0.054200
     32 H15        -13.5590    40.1210   -29.4340 h1         1 XVR       0.085700
     33 H16        -14.1840    40.4190   -32.0120 ha         1 XVR       0.212000
     34 H17        -16.8360    40.3160   -31.7910 ha         1 XVR       0.226000
     35 H18         -9.3500    33.3900   -25.3570 hc         1 XVR       0.047033
     36 H19         -8.6070    34.6570   -26.3400 hc         1 XVR       0.047033
     37 H20        -10.2430    34.8640   -25.7040 hc         1 XVR       0.047033
@<TRIPOS>BOND
     1     1     2 2   
     2     2     3 1   
     3     2     7 1   
     4     3     4 1   
     5     3     5 1   
     6     3    17 1   
     7     4    18 1   
     8     5     6 1   
     9     5    19 1   
    10     5    20 1   
    11     6    21 1   
    12     6    22 1   
    13     6    23 1   
    14     7     8 1   
    15     7    24 1   
    16     7    25 1   
    17     8     9 1   
    18     8    26 1   
    19     8    27 1   
    20     9    10 1   
    21     9    28 1   
    22     9    29 1   
    23    10    11 1   
    24    10    30 1   
    25    10    31 1   
    26    11    12 1   
    27    11    14 1   
    28    11    32 1   
    29    12    13 2   
    30    12    33 1   
    31    13    15 1   
    32    13    34 1   
    33    14    15 1   
    34    15    16 2   
    35    17    35 1   
    36    17    36 1   
    37    17    37 1   
@<TRIPOS>SUBSTRUCTURE
     1 XVR         1 TEMP              0 ****  ****    0 ROOT
