@<TRIPOS>MOLECULE
XVS
  104   107     1     0     0
SMALL
No Charge or Current Charge


@<TRIPOS>ATOM
      1 C13         19.6570    -1.0720    15.3540 c3         1 XVS       0.157300
      2 C15         19.5820    -0.5530    16.8240 c3         1 XVS       0.096700
      3 C17         21.6440     0.5730    17.7240 c          1 XVS       0.638100
      4 C20         23.3050     2.0090    18.6580 c5         1 XVS       0.162300
      5 C21         24.0190     3.3050    18.1880 c5         1 XVS       0.152600
      6 C24         23.1620     3.9040    20.2490 c5         1 XVS       0.369300
      7 C26         20.8780     3.5460    20.2310 c5         1 XVS       0.144600
      8 C28         18.1520    -0.2210    17.3360 c3         1 XVS      -0.033100
      9 C01         16.0680    -6.5550    13.5300 ca         1 XVS       0.199100
     10 C02         17.2970    -7.1420    13.8980 ca         1 XVS      -0.198000
     11 C03         18.0930    -6.5480    14.8920 ca         1 XVS       0.024500
     12 C04         17.6660    -5.3620    15.5210 ca         1 XVS      -0.353500
     13 C05         16.4350    -4.7810    15.1620 ca         1 XVS       0.024500
     14 C06         15.6450    -5.3790    14.1670 ca         1 XVS      -0.198000
     15 C11         20.6970    -4.3580    15.0330 c3         1 XVS       0.198800
     16 C12         19.0340    -2.4900    15.1580 c3         1 XVS       0.206800
     17 C23         22.9760     2.3500    20.1700 c5         1 XVS      -0.148700
     18 C25         21.4660     2.1570    20.5640 c5         1 XVS      -0.096400
     19 C29         18.1420     0.2920    18.7750 ca         1 XVS      -0.117300
     20 C30         18.5920    -0.5320    19.8250 ca         1 XVS      -0.069500
     21 C31         18.6230    -0.0490    21.1450 ca         1 XVS      -0.167500
     22 C32         18.1940     1.2650    21.4260 ca         1 XVS       0.122100
     23 C33         17.7210     2.0760    20.3840 ca         1 XVS      -0.167500
     24 C34         17.6980     1.5970    19.0630 ca         1 XVS      -0.069500
     25 C37         21.9190    -3.5680    14.4840 c3         1 XVS      -0.057700
     26 C38         22.7220    -4.4090    13.4460 c3         1 XVS      -0.074400
     27 C39         22.7980    -3.0000    15.6390 c3         1 XVS      -0.074400
     28 C40         23.9160    -2.0370    15.1880 c3         1 XVS      -0.088100
     29 C42         18.8050     1.0890    23.8220 c3         1 XVS      -0.219400
     30 C46         16.3050     2.5430    24.8500 c3         1 XVS       0.213600
     31 C47         20.2480     3.9160    24.0460 c3         1 XVS       0.213600
     32 C48         15.0660     3.0470    25.6040 c3         1 XVS      -0.109600
     33 C49         21.6260     3.2940    24.3570 c3         1 XVS      -0.109600
     34 C51         15.5870    -8.2950    11.8480 c3         1 XVS       0.144900
     35 N10         19.7340    -3.5970    15.8800 n3         1 XVS      -0.727500
     36 N16         20.4710     0.6040    17.0260 ns         1 XVS      -0.503900
     37 O08         19.5370    -5.6210    17.4160 o          1 XVS      -0.539000
     38 O09         17.8770    -3.7040    17.6160 o          1 XVS      -0.539000
     39 O14         19.0350    -0.1360    14.4500 oh         1 XVS      -0.669000
     40 O18         22.1450    -0.4280    18.2100 o          1 XVS      -0.539000
     41 O19         22.1110     1.8540    17.8330 os         1 XVS      -0.454100
     42 O22         23.3390     4.3550    18.8960 os         1 XVS      -0.457000
     43 O27         21.9060     4.4240    20.7230 os         1 XVS      -0.440000
     44 O35         18.2400     1.8050    22.6940 os         1 XVS      -0.317100
     45 O44         17.3060     2.2500    25.8300 os         1 XVS      -0.577400
     46 O45         19.3000     3.5590    25.0680 os         1 XVS      -0.577400
     47 O50         19.6980     1.3880    26.4890 o          1 XVS      -0.571000
     48 P43         18.8660     2.0370    25.4340 p5         1 XVS       1.366800
     49 S07         18.6900    -4.6000    16.7890 sy         1 XVS       1.164600
     50 H131        20.7200    -1.1410    15.1030 h1         1 XVS       0.055700
     51 H151        19.9580    -1.3710    17.4530 h1         1 XVS       0.102700
     52 H201        23.9740     1.1440    18.5420 h1         1 XVS       0.084700
     53 H212        23.9460     3.4670    17.1040 h1         1 XVS       0.060700
     54 H211        25.0800     3.3040    18.4750 h1         1 XVS       0.060700
     55 H241        24.0030     4.2070    20.8860 h2         1 XVS       0.078700
     56 H261        19.9280     3.7490    20.7410 h1         1 XVS       0.063700
     57 H262        20.7440     3.6990    19.1510 h1         1 XVS       0.063700
     58 H281        17.6940     0.5210    16.6710 hc         1 XVS       0.061700
     59 H282        17.5180    -1.1110    17.2680 hc         1 XVS       0.061700
     60 H021        17.6510    -8.0540    13.4260 ha         1 XVS       0.129000
     61 H031        19.0390    -7.0140    15.1670 ha         1 XVS       0.133000
     62 H051        16.0840    -3.8710    15.6460 ha         1 XVS       0.133000
     63 H061        14.6960    -4.9290    13.8880 ha         1 XVS       0.129000
     64 H112        20.1610    -4.7960    14.1790 h1         1 XVS       0.054700
     65 H111        21.1100    -5.1990    15.6030 h1         1 XVS       0.054700
     66 H122        17.9830    -2.4170    15.4610 h1         1 XVS       0.060200
     67 H121        19.0080    -2.7100    14.0820 h1         1 XVS       0.060200
     68 H231        23.6530     1.8280    20.8550 hc         1 XVS       0.076700
     69 H252        21.3710     1.9600    21.6370 hc         1 XVS       0.059700
     70 H251        20.9480     1.3350    20.0650 hc         1 XVS       0.059700
     71 H301        18.9300    -1.5450    19.6180 ha         1 XVS       0.125000
     72 H311        18.9880    -0.7020    21.9330 ha         1 XVS       0.125000
     73 H331        17.3860     3.0870    20.5990 ha         1 XVS       0.125000
     74 H341        17.3430     2.2460    18.2650 ha         1 XVS       0.125000
     75 H363        23.9420    -6.1970    13.1840 hc         1 XVS       0.032200
     76 H362        24.1780    -5.4080    14.7510 hc         1 XVS       0.032200
     77 H361        22.7090    -6.3660    14.4440 hc         1 XVS       0.032200
     78 H371        21.5290    -2.7200    13.9120 hc         1 XVS       0.044700
     79 H381        23.4720    -3.7720    12.9620 hc         1 XVS       0.046200
     80 H382        22.0400    -4.7200    12.6440 hc         1 XVS       0.046200
     81 H392        22.1580    -2.4610    16.3460 hc         1 XVS       0.046200
     82 H391        23.2410    -3.8230    16.2120 hc         1 XVS       0.046200
     83 H403        24.4180    -1.6050    16.0620 hc         1 XVS       0.032200
     84 H401        24.6710    -2.5580    14.5890 hc         1 XVS       0.032200
     85 H402        23.5020    -1.2140    14.5930 hc         1 XVS       0.032200
     86 H421        18.2270     0.1820    24.0360 h1         1 XVS       0.065700
     87 H422        19.8410     0.7960    23.6150 h1         1 XVS       0.065700
     88 H461        16.6440     3.3220    24.1540 h1         1 XVS       0.040200
     89 H462        16.0400     1.6450    24.2770 h1         1 XVS       0.040200
     90 H471        20.3580     5.0070    24.0140 h1         1 XVS       0.040200
     91 H472        19.9110     3.5960    23.0540 h1         1 XVS       0.040200
     92 H482        14.2630     3.2850    24.8970 hc         1 XVS       0.050700
     93 H481        14.6990     2.2810    26.2980 hc         1 XVS       0.050700
     94 H483        15.3040     3.9530    26.1740 hc         1 XVS       0.050700
     95 H491        22.3730     3.6820    23.6540 hc         1 XVS       0.050700
     96 H492        21.9480     3.5550    25.3720 hc         1 XVS       0.050700
     97 H493        21.6140     2.2030    24.2580 hc         1 XVS       0.050700
     98 H511        14.7990    -8.5450    11.1260 h1         1 XVS       0.047367
     99 H512        16.5260    -8.1690    11.2950 h1         1 XVS       0.047367
    100 H513        15.6940    -9.1420    12.5380 h1         1 XVS       0.047367
    101 H161        20.1580     1.5220    16.7420 hn         1 XVS       0.323500
    102 H141        19.5990     0.6680    14.4360 ho         1 XVS       0.452000
    103 O41         15.2460    -7.0930    12.5610 os         1 XVS      -0.333100
    104 C36         23.4280    -5.6700    13.9970 c3         1 XVS      -0.088100
@<TRIPOS>BOND
     1     1     2 1   
     2     1    16 1   
     3     1    39 1   
     4     1    50 1   
     5     2     8 1   
     6     2    36 1   
     7     2    51 1   
     8     3    36 1   
     9     3    40 2   
    10     3    41 1   
    11     4     5 1   
    12     4    17 1   
    13     4    41 1   
    14     4    52 1   
    15     5    42 1   
    16     5    53 1   
    17     5    54 1   
    18     6    17 1   
    19     6    42 1   
    20     6    43 1   
    21     6    55 1   
    22     7    18 1   
    23     7    43 1   
    24     7    56 1   
    25     7    57 1   
    26     8    19 1   
    27     8    58 1   
    28     8    59 1   
    29     9    10 ar  
    30     9    14 ar  
    31     9   103 1   
    32    10    11 ar  
    33    10    60 1   
    34    11    12 ar  
    35    11    61 1   
    36    12    13 ar  
    37    12    49 1   
    38    13    14 ar  
    39    13    62 1   
    40    14    63 1   
    41    15    25 1   
    42    15    35 1   
    43    15    64 1   
    44    15    65 1   
    45    16    35 1   
    46    16    66 1   
    47    16    67 1   
    48    17    18 1   
    49    17    68 1   
    50    18    69 1   
    51    18    70 1   
    52    19    20 ar  
    53    19    24 ar  
    54    20    21 ar  
    55    20    71 1   
    56    21    22 ar  
    57    21    72 1   
    58    22    23 ar  
    59    22    44 1   
    60    23    24 ar  
    61    23    73 1   
    62    24    74 1   
    63    25    26 1   
    64    25    27 1   
    65    25    78 1   
    66    26    79 1   
    67    26    80 1   
    68    26   104 1   
    69    27    28 1   
    70    27    81 1   
    71    27    82 1   
    72    28    83 1   
    73    28    84 1   
    74    28    85 1   
    75    29    44 1   
    76    29    48 1   
    77    29    86 1   
    78    29    87 1   
    79    30    32 1   
    80    30    45 1   
    81    30    88 1   
    82    30    89 1   
    83    31    33 1   
    84    31    46 1   
    85    31    90 1   
    86    31    91 1   
    87    32    92 1   
    88    32    93 1   
    89    32    94 1   
    90    33    95 1   
    91    33    96 1   
    92    33    97 1   
    93    34    98 1   
    94    34    99 1   
    95    34   100 1   
    96    34   103 1   
    97    35    49 1   
    98    36   101 1   
    99    37    49 2   
   100    38    49 2   
   101    39   102 1   
   102    45    48 1   
   103    46    48 1   
   104    47    48 2   
   105    75   104 1   
   106    76   104 1   
   107    77   104 1   
@<TRIPOS>SUBSTRUCTURE
     1 XVS         1 TEMP              0 ****  ****    0 ROOT
