@<TRIPOS>MOLECULE
XVS
  104   107     1     0     0
SMALL
bcc


@<TRIPOS>ATOM
      1 C13         19.9470    -1.0260    15.1410 c3         1 XVS       0.134100
      2 C15         19.7510    -0.5450    16.5840 c3         1 XVS       0.096700
      3 C17         21.6330     0.6630    17.6160 c          1 XVS       0.754100
      4 C20         23.2100     2.1410    18.5980 c5         1 XVS       0.139100
      5 C21         23.8610     3.4360    18.1440 c5         1 XVS       0.129400
      6 C24         22.9260     4.0080    20.1380 c5         1 XVS       0.322900
      7 C26         20.7180     3.4620    20.3290 c5         1 XVS       0.121400
      8 C28         18.2990    -0.2350    16.9600 c3         1 XVS      -0.033100
      9 C01         15.6700    -6.1740    14.0340 ca         1 XVS       0.199100
     10 C02         16.9120    -6.8060    14.1160 ca         1 XVS      -0.216000
     11 C03         17.9130    -6.2620    14.9040 ca         1 XVS       0.006500
     12 C04         17.6880    -5.0870    15.6080 ca         1 XVS      -0.353500
     13 C05         16.4470    -4.4580    15.5380 ca         1 XVS       0.006500
     14 C06         15.4470    -4.9980    14.7580 ca         1 XVS      -0.216000
     15 C11         20.8750    -4.2840    14.6670 c3         1 XVS       0.198800
     16 C12         19.3030    -2.3770    14.8230 c3         1 XVS       0.206800
     17 C23         22.8670     2.4600    20.0630 c5         1 XVS      -0.148700
     18 C25         21.4540     2.1510    20.5570 c5         1 XVS      -0.096400
     19 C29         18.1860     0.2110    18.3930 ca         1 XVS      -0.117300
     20 C30         18.5700    -0.6200    19.4400 ca         1 XVS      -0.087500
     21 C31         18.5290    -0.1970    20.7620 ca         1 XVS      -0.185500
     22 C32         18.0890     1.0880    21.0590 ca         1 XVS       0.122100
     23 C33         17.6700     1.9230    20.0290 ca         1 XVS      -0.185500
     24 C34         17.7280     1.4850    18.7170 ca         1 XVS      -0.087500
     25 C37         22.1930    -3.5540    14.4080 c3         1 XVS      -0.057700
     26 C38         23.0450    -4.3790    13.4330 c3         1 XVS      -0.074400
     27 C39         22.9130    -3.2160    15.7120 c3         1 XVS      -0.074400
     28 C40         24.1570    -2.3610    15.5200 c3         1 XVS      -0.088100
     29 C42         18.7200     0.9140    23.3350 c3         1 XVS      -0.084800
     30 C46         16.2640     1.6030    25.4920 c3         1 XVS       0.190400
     31 C47         20.8230     3.5330    24.1940 c3         1 XVS       0.190400
     32 C48         14.9200     2.2690    25.3310 c3         1 XVS      -0.109600
     33 C49         21.4030     4.1770    25.4300 c3         1 XVS      -0.109600
     34 C51         14.8170    -7.7970    12.5300 c3         1 XVS       0.121700
     35 N10         19.9420    -3.5110    15.4960 n3         1 XVS      -0.727500
     36 N16         20.5530     0.6420    16.8160 ns         1 XVS      -0.570900
     37 O08         19.8140    -5.4470    17.0900 o          1 XVS      -0.609800
     38 O09         18.4020    -3.4160    17.4740 o          1 XVS      -0.609800
     39 O14         19.4050    -0.1230    14.2030 oh         1 XVS      -0.606800
     40 O18         22.1680    -0.3070    18.1110 o          1 XVS      -0.588000
     41 O19         22.0560     1.9250    17.7920 os         1 XVS      -0.430900
     42 O22         23.1730     4.4600    18.8260 os         1 XVS      -0.410600
     43 O27         21.6970     4.4630    20.5850 os         1 XVS      -0.393600
     44 O35         18.0450     1.6030    22.3120 os         1 XVS      -0.293900
     45 O44         17.2780     2.5110    25.0220 os         1 XVS      -0.554200
     46 O45         19.3950     3.3780    24.3080 os         1 XVS      -0.554200
     47 O50         19.4400     1.3120    25.9340 o          1 XVS      -0.800300
     48 P43         18.7720     1.9930    24.8010 p5         1 XVS       1.438300
     49 S07         18.9960    -4.3720    16.5530 sy         1 XVS       1.306200
     50 H131        21.0300    -1.1210    14.9940 h1         1 XVS       0.055700
     51 H151        20.1310    -1.3300    17.2380 h1         1 XVS       0.102700
     52 H201        23.8900     1.2940    18.5100 h1         1 XVS       0.084700
     53 H212        23.7910     3.6050    17.0690 h1         1 XVS       0.060700
     54 H211        24.9240     3.4160    18.4170 h1         1 XVS       0.060700
     55 H241        23.6970     4.3910    20.8170 h2         1 XVS       0.078700
     56 H261        19.8870     3.6160    21.0170 h1         1 XVS       0.063700
     57 H262        20.3330     3.5370    19.3060 h1         1 XVS       0.063700
     58 H281        17.9100     0.5470    16.3030 hc         1 XVS       0.061700
     59 H282        17.6830    -1.1190    16.7930 hc         1 XVS       0.061700
     60 H021        17.1180    -7.7230    13.5810 ha         1 XVS       0.147000
     61 H031        18.8640    -6.7760    14.9610 ha         1 XVS       0.151000
     62 H051        16.2510    -3.5510    16.0930 ha         1 XVS       0.151000
     63 H061        14.4800    -4.5140    14.7040 ha         1 XVS       0.147000
     64 H112        20.3970    -4.5270    13.7110 h1         1 XVS       0.054700
     65 H111        21.0900    -5.2240    15.1710 h1         1 XVS       0.054700
     66 H122        18.2330    -2.3370    15.0350 h1         1 XVS       0.060200
     67 H121        19.3820    -2.5400    13.7450 h1         1 XVS       0.060200
     68 H231        23.6240     2.0070    20.7040 hc         1 XVS       0.076700
     69 H252        21.4880     1.9240    21.6240 hc         1 XVS       0.059700
     70 H251        20.9700     1.3040    20.0760 hc         1 XVS       0.059700
     71 H301        18.9140    -1.6250    19.2330 ha         1 XVS       0.143000
     72 H311        18.8490    -0.8810    21.5370 ha         1 XVS       0.143000
     73 H331        17.3230     2.9240    20.2590 ha         1 XVS       0.143000
     74 H341        17.4190     2.1590    17.9260 ha         1 XVS       0.143000
     75 H363        24.1470    -6.2230    13.2100 hc         1 XVS       0.032200
     76 H362        24.2930    -5.5180    14.8110 hc         1 XVS       0.032200
     77 H361        22.8160    -6.3550    14.3450 hc         1 XVS       0.032200
     78 H371        21.9660    -2.6160    13.8870 hc         1 XVS       0.044700
     79 H381        23.8760    -3.7620    13.0830 hc         1 XVS       0.046200
     80 H382        22.4450    -4.5890    12.5430 hc         1 XVS       0.046200
     81 H392        22.2230    -2.6860    16.3730 hc         1 XVS       0.046200
     82 H391        23.1710    -4.1400    16.2380 hc         1 XVS       0.046200
     83 H403        24.5920    -2.0850    16.4810 hc         1 XVS       0.032200
     84 H401        24.9300    -2.8780    14.9490 hc         1 XVS       0.032200
     85 H402        23.9170    -1.4370    14.9900 hc         1 XVS       0.032200
     86 H421        18.2280    -0.0290    23.6020 h1         1 XVS       0.065700
     87 H422        19.7530     0.6700    23.0580 h1         1 XVS       0.065700
     88 H461        16.2930     0.6720    24.9190 h1         1 XVS       0.040200
     89 H462        16.4550     1.3580    26.5380 h1         1 XVS       0.040200
     90 H471        20.9850     4.1560    23.3160 h1         1 XVS       0.040200
     91 H472        21.3060     2.5710    23.9980 h1         1 XVS       0.040200
     92 H482        14.1420     1.5980    25.6930 hc         1 XVS       0.050700
     93 H481        14.8630     3.1910    25.9080 hc         1 XVS       0.050700
     94 H483        14.7120     2.4950    24.2860 hc         1 XVS       0.050700
     95 H491        22.4700     4.3470    25.2810 hc         1 XVS       0.050700
     96 H492        20.9360     5.1410    25.6310 hc         1 XVS       0.050700
     97 H493        21.2820     3.5420    26.3060 hc         1 XVS       0.050700
     98 H511        13.8760    -7.9630    12.0120 h1         1 XVS       0.047367
     99 H512        15.6130    -7.6830    11.7900 h1         1 XVS       0.047367
    100 H513        15.0330    -8.6650    13.1570 h1         1 XVS       0.047367
    101 H161        20.1680     1.5310    16.5300 hn         1 XVS       0.323500
    102 H141        19.9420     0.6750    14.1960 ho         1 XVS       0.413000
    103 O41         14.6460    -6.6200    13.3000 os         1 XVS      -0.309900
    104 C36         23.6000    -5.6870    13.9860 c3         1 XVS      -0.088100
@<TRIPOS>BOND
     1     1     2 1   
     2     1    16 1   
     3     1    39 1   
     4     1    50 1   
     5     2     8 1   
     6     2    36 1   
     7     2    51 1   
     8     3    36 1   
     9     3    40 2   
    10     3    41 1   
    11     4     5 1   
    12     4    17 1   
    13     4    41 1   
    14     4    52 1   
    15     5    42 1   
    16     5    53 1   
    17     5    54 1   
    18     6    17 1   
    19     6    42 1   
    20     6    43 1   
    21     6    55 1   
    22     7    18 1   
    23     7    43 1   
    24     7    56 1   
    25     7    57 1   
    26     8    19 1   
    27     8    58 1   
    28     8    59 1   
    29     9    10 ar  
    30     9    14 ar  
    31     9   103 1   
    32    10    11 ar  
    33    10    60 1   
    34    11    12 ar  
    35    11    61 1   
    36    12    13 ar  
    37    12    49 1   
    38    13    14 ar  
    39    13    62 1   
    40    14    63 1   
    41    15    25 1   
    42    15    35 1   
    43    15    64 1   
    44    15    65 1   
    45    16    35 1   
    46    16    66 1   
    47    16    67 1   
    48    17    18 1   
    49    17    68 1   
    50    18    69 1   
    51    18    70 1   
    52    19    20 ar  
    53    19    24 ar  
    54    20    21 ar  
    55    20    71 1   
    56    21    22 ar  
    57    21    72 1   
    58    22    23 ar  
    59    22    44 1   
    60    23    24 ar  
    61    23    73 1   
    62    24    74 1   
    63    25    26 1   
    64    25    27 1   
    65    25    78 1   
    66    26    79 1   
    67    26    80 1   
    68    26   104 1   
    69    27    28 1   
    70    27    81 1   
    71    27    82 1   
    72    28    83 1   
    73    28    84 1   
    74    28    85 1   
    75    29    44 1   
    76    29    48 1   
    77    29    86 1   
    78    29    87 1   
    79    30    32 1   
    80    30    45 1   
    81    30    88 1   
    82    30    89 1   
    83    31    33 1   
    84    31    46 1   
    85    31    90 1   
    86    31    91 1   
    87    32    92 1   
    88    32    93 1   
    89    32    94 1   
    90    33    95 1   
    91    33    96 1   
    92    33    97 1   
    93    34    98 1   
    94    34    99 1   
    95    34   100 1   
    96    34   103 1   
    97    35    49 1   
    98    36   101 1   
    99    37    49 2   
   100    38    49 2   
   101    39   102 1   
   102    45    48 1   
   103    46    48 1   
   104    47    48 2   
   105    75   104 1   
   106    76   104 1   
   107    77   104 1   
@<TRIPOS>SUBSTRUCTURE
     1 XVS         1 TEMP              0 ****  ****    0 ROOT
