@<TRIPOS>MOLECULE
XVU
   46    47     1     0     0
SMALL
No Charge or Current Charge


@<TRIPOS>ATOM
      1 C15        123.7370   245.4620   357.4600 ca         1 XVU      -0.056300
      2 C14        124.7800   244.8630   358.1910 ca         1 XVU      -0.136000
      3 C11        122.0870   244.3320   358.8960 ca         1 XVU      -0.076300
      4 C12        123.1500   243.7340   359.6080 ca         1 XVU       0.116000
      5 C20        123.6510   243.7020   354.7880 c3         1 XVU       0.147100
      6 C21        125.1300   244.5920   353.0470 c3         1 XVU       0.147100
      7 C02        116.3040   242.9380   358.7550 ca         1 XVU       0.592900
      8 C03        115.6370   243.5350   359.8280 ca         1 XVU      -0.226000
      9 C04        116.2760   244.5800   360.5110 ca         1 XVU      -0.000300
     10 C05        117.5530   244.9580   360.0630 ca         1 XVU      -0.212000
     11 C06        118.1320   244.2840   358.9710 ca         1 XVU       0.390300
     12 C08        119.5180   244.6640   358.4720 c3         1 XVU      -0.123700
     13 C09        120.6430   244.0160   359.3160 c3         1 XVU      -0.027100
     14 C13        124.4860   244.0010   359.2570 ca         1 XVU       0.137000
     15 C16        122.3980   245.2020   357.8230 ca         1 XVU      -0.104000
     16 C17        124.0480   246.4060   356.2980 c3         1 XVU      -0.031100
     17 C18        124.9400   245.8030   355.1790 c3         1 XVU       0.169800
     18 F12        122.8870   242.8990   360.6420 f          1 XVU      -0.168000
     19 F13        125.5000   243.4310   359.9480 f          1 XVU      -0.167000
     20 N01        117.5090   243.2750   358.3220 nb         1 XVU      -0.747000
     21 N02        115.7980   241.9310   358.0400 nv         1 XVU      -1.052900
     22 N19        124.2550   244.9190   354.1950 n3         1 XVU      -0.718600
     23 H1         125.8180   245.0630   357.9400 ha         1 XVU       0.133000
     24 H2         122.8340   243.9590   355.4730 h1         1 XVU       0.032533
     25 H3         123.2250   243.0590   354.0060 h1         1 XVU       0.032533
     26 H4         124.4000   243.1190   355.3400 h1         1 XVU       0.032533
     27 H5         125.5000   245.5070   352.5660 h1         1 XVU       0.032533
     28 H6         125.9960   243.9990   353.3710 h1         1 XVU       0.032533
     29 H7         124.5810   244.0140   352.2910 h1         1 XVU       0.032533
     30 H8         114.6480   243.1960   360.1200 ha         1 XVU       0.119000
     31 H9         118.0940   245.7620   360.5540 ha         1 XVU       0.121000
     32 H10        115.0470   246.1570   361.3460 hc         1 XVU       0.047367
     33 H11        114.9160   244.6130   362.2060 hc         1 XVU       0.047367
     34 H12        116.3540   245.6210   362.4170 hc         1 XVU       0.047367
     35 H13        119.6350   244.3670   357.4220 hc         1 XVU       0.058200
     36 H14        119.6240   245.7550   358.5040 hc         1 XVU       0.058200
     37 H15        120.5030   244.3160   360.3620 hc         1 XVU       0.066700
     38 H16        120.4970   242.9280   359.2950 hc         1 XVU       0.066700
     39 H17        121.6080   245.6810   357.2530 ha         1 XVU       0.125000
     40 H18        124.5670   247.2840   356.7000 hc         1 XVU       0.057200
     41 H19        123.1280   246.7900   355.8420 hc         1 XVU       0.057200
     42 H20        125.7870   245.2740   355.6350 h1         1 XVU       0.032200
     43 H21        125.3690   246.6540   354.6330 h1         1 XVU       0.032200
     44 H22        116.4700   241.4450   357.4590 hn         1 XVU       0.467000
     45 H23        115.0730   241.3660   358.4670 hn         1 XVU       0.467000
     46 C07        115.6120   245.2810   361.6840 c3         1 XVU      -0.052800
@<TRIPOS>BOND
     1     1     2 ar  
     2     1    15 ar  
     3     1    16 1   
     4     2    14 ar  
     5     2    23 1   
     6     3     4 ar  
     7     3    13 1   
     8     3    15 ar  
     9     4    14 ar  
    10     4    18 1   
    11     5    22 1   
    12     5    24 1   
    13     5    25 1   
    14     5    26 1   
    15     6    22 1   
    16     6    27 1   
    17     6    28 1   
    18     6    29 1   
    19     7     8 ar  
    20     7    20 ar  
    21     7    21 1   
    22     8     9 ar  
    23     8    30 1   
    24     9    10 ar  
    25     9    46 1   
    26    10    11 ar  
    27    10    31 1   
    28    11    12 1   
    29    11    20 ar  
    30    12    13 1   
    31    12    35 1   
    32    12    36 1   
    33    13    37 1   
    34    13    38 1   
    35    14    19 1   
    36    15    39 1   
    37    16    17 1   
    38    16    40 1   
    39    16    41 1   
    40    17    22 1   
    41    17    42 1   
    42    17    43 1   
    43    21    44 1   
    44    21    45 1   
    45    32    46 1   
    46    33    46 1   
    47    34    46 1   
@<TRIPOS>SUBSTRUCTURE
     1 XVU         1 TEMP              0 ****  ****    0 ROOT
