@<TRIPOS>MOLECULE
XVU
   46    47     1     0     0
SMALL
abcg2


@<TRIPOS>ATOM
      1 C15        123.7890   245.3640   357.5500 ca         1 XVU      -0.056300
      2 C14        124.7960   244.6740   358.2240 ca         1 XVU      -0.136000
      3 C11        122.0940   244.2190   358.8940 ca         1 XVU      -0.076300
      4 C12        123.1240   243.5430   359.5340 ca         1 XVU       0.116000
      5 C20        123.7980   243.6610   354.8040 c3         1 XVU       0.147100
      6 C21        124.7220   244.9400   353.0100 c3         1 XVU       0.147100
      7 C02        116.5410   242.7650   358.9540 ca         1 XVU       0.592900
      8 C03        115.7510   243.5240   359.8360 ca         1 XVU      -0.226000
      9 C04        116.2300   244.7330   360.3020 ca         1 XVU      -0.000300
     10 C05        117.4960   245.1500   359.8660 ca         1 XVU      -0.212000
     11 C06        118.2180   244.3430   359.0020 ca         1 XVU       0.390300
     12 C08        119.6000   244.7280   358.5460 c3         1 XVU      -0.123700
     13 C09        120.6690   243.9310   359.2980 c3         1 XVU      -0.027100
     14 C13        124.4490   243.7700   359.2060 ca         1 XVU       0.137000
     15 C16        122.4590   245.1310   357.9020 ca         1 XVU      -0.104000
     16 C17        124.1380   246.3480   356.4620 c3         1 XVU      -0.031100
     17 C18        124.8960   245.7900   355.2490 c3         1 XVU       0.169800
     18 F12        122.8430   242.6440   360.5070 f          1 XVU      -0.168000
     19 F13        125.4070   243.0880   359.8740 f          1 XVU      -0.167000
     20 N01        117.7500   243.1660   358.5520 nb         1 XVU      -0.747000
     21 N02        116.0680   241.5850   358.4240 nv         1 XVU      -1.052900
     22 N19        124.0820   245.0070   354.3190 n3         1 XVU      -0.718600
     23 H1         125.8430   244.8250   357.9930 ha         1 XVU       0.133000
     24 H2         123.2400   243.6960   355.7370 h1         1 XVU       0.032533
     25 H3         123.1950   243.1310   354.0650 h1         1 XVU       0.032533
     26 H4         124.7200   243.0790   354.9770 h1         1 XVU       0.032533
     27 H5         124.8770   245.9460   352.6180 h1         1 XVU       0.032533
     28 H6         125.7010   244.4300   353.0440 h1         1 XVU       0.032533
     29 H7         124.0820   244.3920   352.3170 h1         1 XVU       0.032533
     30 H8         114.7770   243.1570   360.1380 ha         1 XVU       0.119000
     31 H9         117.9120   246.0920   360.2030 ha         1 XVU       0.121000
     32 H10        115.2640   246.5750   360.8320 hc         1 XVU       0.047367
     33 H11        114.4610   245.1290   361.4650 hc         1 XVU       0.047367
     34 H12        115.9660   245.7130   362.1920 hc         1 XVU       0.047367
     35 H13        119.6830   244.5340   357.4740 hc         1 XVU       0.058200
     36 H14        119.7510   245.7960   358.7050 hc         1 XVU       0.058200
     37 H15        120.5640   244.1170   360.3710 hc         1 XVU       0.066700
     38 H16        120.4740   242.8630   359.1640 hc         1 XVU       0.066700
     39 H17        121.6850   245.6710   357.3730 ha         1 XVU       0.125000
     40 H18        124.7710   247.1300   356.8940 hc         1 XVU       0.057200
     41 H19        123.2280   246.8350   356.1070 hc         1 XVU       0.057200
     42 H20        125.7730   245.2120   355.5890 h1         1 XVU       0.032200
     43 H21        125.2820   246.6450   354.6930 h1         1 XVU       0.032200
     44 H22        116.7710   240.9690   358.0450 hn         1 XVU       0.467000
     45 H23        115.3360   241.1170   358.9350 hn         1 XVU       0.467000
     46 C07        115.4290   245.5790   361.2500 c3         1 XVU      -0.052800
@<TRIPOS>BOND
     1     1     2 ar  
     2     1    15 ar  
     3     1    16 1   
     4     2    14 ar  
     5     2    23 1   
     6     3     4 ar  
     7     3    13 1   
     8     3    15 ar  
     9     4    14 ar  
    10     4    18 1   
    11     5    22 1   
    12     5    24 1   
    13     5    25 1   
    14     5    26 1   
    15     6    22 1   
    16     6    27 1   
    17     6    28 1   
    18     6    29 1   
    19     7     8 ar  
    20     7    20 ar  
    21     7    21 1   
    22     8     9 ar  
    23     8    30 1   
    24     9    10 ar  
    25     9    46 1   
    26    10    11 ar  
    27    10    31 1   
    28    11    12 1   
    29    11    20 ar  
    30    12    13 1   
    31    12    35 1   
    32    12    36 1   
    33    13    37 1   
    34    13    38 1   
    35    14    19 1   
    36    15    39 1   
    37    16    17 1   
    38    16    40 1   
    39    16    41 1   
    40    17    22 1   
    41    17    42 1   
    42    17    43 1   
    43    21    44 1   
    44    21    45 1   
    45    32    46 1   
    46    33    46 1   
    47    34    46 1   
@<TRIPOS>SUBSTRUCTURE
     1 XVU         1 TEMP              0 ****  ****    0 ROOT
