@<TRIPOS>MOLECULE
XVV
  102   106     1     0     0
SMALL
bcc


@<TRIPOS>ATOM
      1 C13         19.8260    -0.4000    15.3140 c3         1 XVV       0.129100
      2 C15         19.9210    -0.2600    16.8430 c3         1 XVV       0.098700
      3 C17         22.1090     0.1190    17.9100 c          1 XVV       0.756100
      4 C20         24.1690     0.8390    18.8560 c5         1 XVV       0.138100
      5 C21         25.2300     1.8230    18.3980 c5         1 XVV       0.129400
      6 C24         24.6280     2.6180    20.4510 c5         1 XVV       0.324900
      7 C26         22.3680     2.8100    20.7650 c5         1 XVV       0.130400
      8 C28         18.6560     0.3110    17.4950 c3         1 XVV      -0.035100
      9 C01         15.9120    -6.3010    13.5700 ca         1 XVV       0.133400
     10 C02         17.0990    -6.8480    14.0820 ca         1 XVV      -0.091100
     11 C03         17.9400    -6.1240    14.9160 ca         1 XVV       0.018000
     12 C04         17.5620    -4.8300    15.2210 ca         1 XVV      -0.293500
     13 C05         16.3790    -4.2610    14.7270 ca         1 XVV      -0.051000
     14 C06         15.5540    -4.9930    13.9030 ca         1 XVV      -0.088000
     15 C11         20.2470    -3.5640    14.1650 c3         1 XVV       0.209800
     16 C12         18.9360    -1.5520    14.8410 c3         1 XVV       0.219800
     17 C23         24.0570     1.1820    20.3490 c5         1 XVV      -0.146700
     18 C25         22.6600     1.3280    20.9510 c5         1 XVV      -0.099400
     19 C29         18.7740     0.3490    18.9940 ca         1 XVV      -0.117300
     20 C30         18.7250    -0.8230    19.7490 ca         1 XVV      -0.084500
     21 C31         18.8750    -0.8030    21.1230 ca         1 XVV      -0.185500
     22 C32         19.0790     0.4040    21.7910 ca         1 XVV       0.140100
     23 C33         19.1150     1.5840    21.0600 ca         1 XVV      -0.185500
     24 C34         18.9690     1.5410    19.6770 ca         1 XVV      -0.084500
     25 C36         22.6510    -5.2610    13.0630 c3         1 XVV      -0.087600
     26 C37         21.6760    -3.0490    13.9930 c3         1 XVV      -0.059700
     27 C38         22.3440    -3.7880    12.8240 c3         1 XVV      -0.075400
     28 C39         22.4610    -3.1380    15.2990 c3         1 XVV      -0.075400
     29 C40         23.8640    -2.5560    15.2150 c3         1 XVV      -0.087600
     30 C42         19.7000     1.3930    23.8950 c3         1 XVV      -0.045800
     31 C46         16.7960     1.2200    26.6510 c3         1 XVV       0.191900
     32 C47         17.4210     4.0490    23.0630 c3         1 XVV       0.191900
     33 C48         15.5330     2.0190    26.4220 c3         1 XVV      -0.131600
     34 C49         16.5620     5.0700    23.7720 c3         1 XVV      -0.131600
     35 C52         15.7800    -8.2780    12.6520 cc         1 XVV       0.397100
     36 N10         19.4690    -2.8640    15.1960 n3         1 XVV      -0.751500
     37 N16         21.0610     0.5620    17.1940 ns         1 XVV      -0.571900
     38 N41         15.1880    -7.1430    12.7620 nd         1 XVV      -0.528100
     39 O08         17.7990    -2.9880    17.0680 o          1 XVV      -0.602800
     40 O09         19.5900    -4.7360    16.8540 o          1 XVV      -0.602800
     41 O14         19.2980     0.7500    14.6940 oh         1 XVV      -0.603800
     42 O18         22.2750    -1.0180    18.3020 o          1 XVV      -0.583000
     43 O19         22.9740     1.1210    18.1320 os         1 XVV      -0.433900
     44 O22         24.9940     2.9970    19.1440 os         1 XVV      -0.413600
     45 O27         23.6290     3.4450    20.9380 os         1 XVV      -0.392600
     46 O35         19.2380     0.3050    23.1340 os         1 XVV      -0.291900
     47 O44         17.5840     1.0460    25.4590 os         1 XVV      -0.564200
     48 O45         17.3100     2.7530    23.6790 os         1 XVV      -0.564200
     49 O50         18.8810     3.3150    25.6940 o          1 XVV      -0.799300
     50 P43         18.3650     2.2630    24.7840 p5         1 XVV       1.386300
     51 S07         18.6330    -3.8370    16.2310 sy         1 XVV       1.307200
     52 S51         17.2740    -8.4680    13.5090 ss         1 XVV      -0.070100
     53 H131        20.8470    -0.5890    14.9600 h1         1 XVV       0.052700
     54 H151        20.1130    -1.2530    17.2510 h1         1 XVV       0.096700
     55 H201        24.4740    -0.1940    18.6900 h1         1 XVV       0.086700
     56 H212        25.1810     2.0530    17.3330 h1         1 XVV       0.060200
     57 H211        26.2210     1.4040    18.6110 h1         1 XVV       0.060200
     58 H241        25.4950     2.7040    21.1170 h2         1 XVV       0.080700
     59 H262        21.6840     3.2140    21.5110 h1         1 XVV       0.050200
     60 H261        21.9490     3.0190    19.7750 h1         1 XVV       0.050200
     61 H281        18.4740     1.3180    17.1150 hc         1 XVV       0.063700
     62 H282        17.7960    -0.2930    17.2030 hc         1 XVV       0.063700
     63 H031        18.8480    -6.5590    15.3110 ha         1 XVV       0.169000
     64 H051        16.1020    -3.2500    14.9950 ha         1 XVV       0.151000
     65 H061        14.6360    -4.5680    13.5190 ha         1 XVV       0.157000
     66 H111        19.7080    -3.4950    13.2130 h1         1 XVV       0.048200
     67 H112        20.2950    -4.6230    14.4170 h1         1 XVV       0.048200
     68 H121        17.9240    -1.4220    15.2250 h1         1 XVV       0.066700
     69 H122        18.8620    -1.4980    13.7520 h1         1 XVV       0.066700
     70 H231        24.6670     0.4750    20.9120 hc         1 XVV       0.078700
     71 H252        22.6980     1.0880    22.0160 hc         1 XVV       0.067700
     72 H251        21.9020     0.6840    20.5110 hc         1 XVV       0.067700
     73 H301        18.5720    -1.7740    19.2530 ha         1 XVV       0.138500
     74 H311        18.8410    -1.7260    21.6890 ha         1 XVV       0.136000
     75 H331        19.2670     2.5460    21.5290 ha         1 XVV       0.136000
     76 H341        19.0080     2.4730    19.1250 ha         1 XVV       0.138500
     77 H361        23.0910    -5.7060    12.1700 hc         1 XVV       0.031700
     78 H362        23.3630    -5.4020    13.8780 hc         1 XVV       0.031700
     79 H363        21.7580    -5.8410    13.3020 hc         1 XVV       0.031700
     80 H371        21.6270    -1.9960    13.6930 hc         1 XVV       0.044700
     81 H382        23.2720    -3.2700    12.5700 hc         1 XVV       0.048200
     82 H381        21.7050    -3.6900    11.9410 hc         1 XVV       0.048200
     83 H391        21.9090    -2.6090    16.0780 hc         1 XVV       0.048200
     84 H392        22.5090    -4.1800    15.6300 hc         1 XVV       0.048200
     85 H403        24.3400    -2.5480    16.1960 hc         1 XVV       0.031700
     86 H402        24.5090    -3.1250    14.5430 hc         1 XVV       0.031700
     87 H401        23.8390    -1.5250    14.8540 hc         1 XVV       0.031700
     88 H421        20.3780     0.9960    24.6560 h1         1 XVV       0.080200
     89 H422        20.2780     2.1190    23.3160 h1         1 XVV       0.080200
     90 H462        16.5530     0.2080    26.9730 h1         1 XVV       0.049450
     91 H461        17.4080     1.6780    27.4300 h1         1 XVV       0.049450
     92 H471        17.0930     3.9150    22.0320 h1         1 XVV       0.049450
     93 H472        18.4640     4.3780    23.0310 h1         1 XVV       0.049450
     94 H482        14.9330     1.9980    27.3320 hc         1 XVV       0.051367
     95 H481        15.7410     3.0640    26.1910 hc         1 XVV       0.051367
     96 H483        14.9330     1.5980    25.6150 hc         1 XVV       0.051367
     97 H492        16.6130     6.0190    23.2360 hc         1 XVV       0.051367
     98 H491        15.5190     4.7570    23.8000 hc         1 XVV       0.051367
     99 H493        16.9030     5.2400    24.7920 hc         1 XVV       0.051367
    100 H521        15.3930    -9.0990    12.0620 h5         1 XVV       0.063800
    101 H161        21.0110     1.5510    17.0000 hn         1 XVV       0.320500
    102 H141        19.9530     1.4550    14.7220 ho         1 XVV       0.411000
@<TRIPOS>BOND
     1     1     2 1   
     2     1    16 1   
     3     1    41 1   
     4     1    53 1   
     5     2     8 1   
     6     2    37 1   
     7     2    54 1   
     8     3    37 1   
     9     3    42 2   
    10     3    43 1   
    11     4     5 1   
    12     4    17 1   
    13     4    43 1   
    14     4    55 1   
    15     5    44 1   
    16     5    56 1   
    17     5    57 1   
    18     6    17 1   
    19     6    44 1   
    20     6    45 1   
    21     6    58 1   
    22     7    18 1   
    23     7    45 1   
    24     7    59 1   
    25     7    60 1   
    26     8    19 1   
    27     8    61 1   
    28     8    62 1   
    29     9    10 ar  
    30     9    14 ar  
    31     9    38 1   
    32    10    11 ar  
    33    10    52 1   
    34    11    12 ar  
    35    11    63 1   
    36    12    13 ar  
    37    12    51 1   
    38    13    14 ar  
    39    13    64 1   
    40    14    65 1   
    41    15    26 1   
    42    15    36 1   
    43    15    66 1   
    44    15    67 1   
    45    16    36 1   
    46    16    68 1   
    47    16    69 1   
    48    17    18 1   
    49    17    70 1   
    50    18    71 1   
    51    18    72 1   
    52    19    20 ar  
    53    19    24 ar  
    54    20    21 ar  
    55    20    73 1   
    56    21    22 ar  
    57    21    74 1   
    58    22    23 ar  
    59    22    46 1   
    60    23    24 ar  
    61    23    75 1   
    62    24    76 1   
    63    25    27 1   
    64    25    77 1   
    65    25    78 1   
    66    25    79 1   
    67    26    27 1   
    68    26    28 1   
    69    26    80 1   
    70    27    81 1   
    71    27    82 1   
    72    28    29 1   
    73    28    83 1   
    74    28    84 1   
    75    29    85 1   
    76    29    86 1   
    77    29    87 1   
    78    30    46 1   
    79    30    50 1   
    80    30    88 1   
    81    30    89 1   
    82    31    33 1   
    83    31    47 1   
    84    31    90 1   
    85    31    91 1   
    86    32    34 1   
    87    32    48 1   
    88    32    92 1   
    89    32    93 1   
    90    33    94 1   
    91    33    95 1   
    92    33    96 1   
    93    34    97 1   
    94    34    98 1   
    95    34    99 1   
    96    35    38 2   
    97    35    52 1   
    98    35   100 1   
    99    36    51 1   
   100    37   101 1   
   101    39    51 2   
   102    40    51 2   
   103    41   102 1   
   104    47    50 1   
   105    48    50 1   
   106    49    50 2   
@<TRIPOS>SUBSTRUCTURE
     1 XVV         1 TEMP              0 ****  ****    0 ROOT
