@<TRIPOS>MOLECULE
XVV
  102   106     1     0     0
SMALL
No Charge or Current Charge


@<TRIPOS>ATOM
      1 C13         20.0960    -0.5830    15.5250 c3         1 XVV       0.152300
      2 C15         20.2750    -0.3440    17.0570 c3         1 XVV       0.098700
      3 C17         22.6110     0.1180    17.8680 c          1 XVV       0.640100
      4 C20         24.6570     0.9590    18.7570 c5         1 XVV       0.161300
      5 C21         25.6030     2.1350    18.3920 c5         1 XVV       0.152600
      6 C24         25.1550     2.5040    20.6280 c5         1 XVV       0.371300
      7 C26         22.8660     2.6600    20.9240 c5         1 XVV       0.153600
      8 C28         19.0170     0.1950    17.7940 c3         1 XVV      -0.035100
      9 C01         15.2360    -4.8080    13.2460 ca         1 XVV       0.133400
     10 C02         16.2940    -5.6750    13.4230 ca         1 XVV      -0.218000
     11 C03         17.2770    -5.4640    14.4020 ca         1 XVV       0.036000
     12 C04         17.1750    -4.3210    15.2230 ca         1 XVV      -0.293500
     13 C05         16.0880    -3.4290    15.0550 ca         1 XVV      -0.033000
     14 C06         15.1180    -3.6740    14.0630 ca         1 XVV      -0.070000
     15 C11         20.2890    -3.9020    14.5650 c3         1 XVV       0.209800
     16 C12         19.1370    -1.7660    15.1830 c3         1 XVV       0.219800
     17 C23         24.5920     1.0720    20.3360 c5         1 XVV      -0.146700
     18 C25         23.1340     1.1390    20.9260 c5         1 XVV      -0.099400
     19 C29         19.2580     0.4060    19.2870 ca         1 XVV      -0.117300
     20 C30         19.5210    -0.6950    20.1240 ca         1 XVV      -0.066500
     21 C31         19.7690    -0.4990    21.4920 ca         1 XVV      -0.167500
     22 C32         19.7460     0.7910    22.0420 ca         1 XVV       0.140100
     23 C33         19.4800     1.8970    21.2070 ca         1 XVV      -0.167500
     24 C34         19.2380     1.7020    19.8370 ca         1 XVV      -0.066500
     25 C36         22.5380    -5.5800    13.0240 c3         1 XVV      -0.087600
     26 C37         21.6200    -3.3180    14.0100 c3         1 XVV      -0.059700
     27 C38         22.1170    -4.1150    12.7660 c3         1 XVV      -0.075400
     28 C39         22.6940    -3.1790    15.1310 c3         1 XVV      -0.075400
     29 C40         23.9720    -2.4230    14.7120 c3         1 XVV      -0.087600
     30 C42         19.7210     2.1300    24.1450 c3         1 XVV      -0.180400
     31 C46         16.7830     4.1440    26.1780 c3         1 XVV       0.215100
     32 C47         16.6160     0.2200    23.8450 c3         1 XVV       0.215100
     33 C48         15.4740     3.3320    26.2290 c3         1 XVV      -0.131600
     34 C49         15.1760     0.7110    23.6030 c3         1 XVV      -0.131600
     35 C52         14.7590    -6.2730    11.6770 cc         1 XVV       0.397100
     36 N10         19.6060    -3.1140    15.6300 n3         1 XVV      -0.751500
     37 N16         21.4260     0.5320    17.3290 ns         1 XVV      -0.504900
     38 N41         14.3310    -5.1320    12.2420 nd         1 XVV      -0.528100
     39 O08         17.8910    -3.1150    17.5090 o          1 XVV      -0.532000
     40 O09         19.0650    -5.2770    16.8630 o          1 XVV      -0.532000
     41 O14         19.6410     0.6200    14.8710 oh         1 XVV      -0.666000
     42 O18         22.9000    -1.0390    18.1250 o          1 XVV      -0.534000
     43 O19         23.3770     1.2240    18.1100 os         1 XVV      -0.457100
     44 O22         25.2770     3.1540    19.3520 os         1 XVV      -0.460000
     45 O27         24.1280     3.1860    21.3710 os         1 XVV      -0.439000
     46 O35         20.0020     0.9190    23.3930 os         1 XVV      -0.315100
     47 O44         17.8840     3.3180    25.7590 os         1 XVV      -0.587400
     48 O45         17.2730     1.0810    24.7900 os         1 XVV      -0.587400
     49 O50         17.2680     3.2190    23.2160 o          1 XVV      -0.570000
     50 P43         17.9120     2.5060    24.3560 p5         1 XVV       1.314800
     51 S07         18.4260    -4.0130    16.4810 sy         1 XVV       1.165600
     52 S51         16.2450    -7.0240    12.2990 ss         1 XVV       0.056800
     53 H131        21.0860    -0.8360    15.1330 h1         1 XVV       0.052700
     54 H151        20.4980    -1.3260    17.4940 h1         1 XVV       0.096700
     55 H201        25.0830     0.0080    18.4060 h1         1 XVV       0.086700
     56 H212        25.4490     2.5100    17.3720 h1         1 XVV       0.060200
     57 H211        26.6580     1.8520    18.5100 h1         1 XVV       0.060200
     58 H241        26.1150     2.4900    21.1630 h2         1 XVV       0.080700
     59 H262        22.0680     2.9580    21.6160 h1         1 XVV       0.050200
     60 H261        22.6370     3.0460    19.9210 h1         1 XVV       0.050200
     61 H281        18.7010     1.1360    17.3280 hc         1 XVV       0.063700
     62 H282        18.1820    -0.4990    17.6580 hc         1 XVV       0.063700
     63 H031        18.0980    -6.1710    14.5150 ha         1 XVV       0.151000
     64 H051        15.9880    -2.5490    15.6890 ha         1 XVV       0.133000
     65 H061        14.2840    -2.9900    13.9300 ha         1 XVV       0.139000
     66 H111        19.6000    -4.0430    13.7210 h1         1 XVV       0.048200
     67 H112        20.5300    -4.9040    14.9400 h1         1 XVV       0.048200
     68 H121        18.1610    -1.5160    15.6170 h1         1 XVV       0.066700
     69 H122        18.9730    -1.7730    14.0970 h1         1 XVV       0.066700
     70 H231        25.1970     0.2960    20.8170 hc         1 XVV       0.078700
     71 H252        23.1200     0.7640    21.9560 hc         1 XVV       0.067700
     72 H251        22.3770     0.5640    20.3890 hc         1 XVV       0.067700
     73 H301        19.5390    -1.7030    19.7120 ha         1 XVV       0.120500
     74 H311        19.9780    -1.3530    22.1320 ha         1 XVV       0.118000
     75 H331        19.4730     2.9100    21.5960 ha         1 XVV       0.118000
     76 H341        19.0430     2.5640    19.2010 ha         1 XVV       0.120500
     77 H361        22.8500    -6.0520    12.0850 hc         1 XVV       0.031700
     78 H362        23.3840    -5.6330    13.7200 hc         1 XVV       0.031700
     79 H363        21.7090    -6.1680    13.4340 hc         1 XVV       0.031700
     80 H371        21.4020    -2.3150    13.6300 hc         1 XVV       0.044700
     81 H382        22.9590    -3.5840    12.3060 hc         1 XVV       0.048200
     82 H381        21.3220    -4.1140    12.0090 hc         1 XVV       0.048200
     83 H391        22.2570    -2.6480    15.9840 hc         1 XVV       0.048200
     84 H392        22.9690    -4.1700    15.5120 hc         1 XVV       0.048200
     85 H403        24.6280    -2.2800    15.5790 hc         1 XVV       0.031700
     86 H402        24.5340    -2.9820    13.9540 hc         1 XVV       0.031700
     87 H401        23.7240    -1.4350    14.3070 hc         1 XVV       0.031700
     88 H421        20.0940     2.0290    25.1700 h1         1 XVV       0.080200
     89 H422        20.1980     3.0100    23.7000 h1         1 XVV       0.080200
     90 H462        16.9870     4.5430    27.1810 h1         1 XVV       0.049450
     91 H461        16.6570     5.0000    25.5020 h1         1 XVV       0.049450
     92 H471        16.5830    -0.8060    24.2350 h1         1 XVV       0.049450
     93 H472        17.1560     0.1930    22.8890 h1         1 XVV       0.049450
     94 H482        14.7020     3.9050    26.7550 hc         1 XVV       0.051367
     95 H481        15.0980     3.1240    25.2220 hc         1 XVV       0.051367
     96 H483        15.6190     2.3860    26.7650 hc         1 XVV       0.051367
     97 H492        14.6480     0.0040    22.9530 hc         1 XVV       0.051367
     98 H491        14.6270     0.7730    24.5490 hc         1 XVV       0.051367
     99 H493        15.1550     1.6900    23.1140 hc         1 XVV       0.051367
    100 H521        14.2460    -6.7650    10.8600 h5         1 XVV       0.063800
    101 H161        21.3200     1.5320    17.2280 hn         1 XVV       0.320500
    102 H141        20.3790     1.2670    14.9130 ho         1 XVV       0.450000
@<TRIPOS>BOND
     1     1     2 1   
     2     1    16 1   
     3     1    41 1   
     4     1    53 1   
     5     2     8 1   
     6     2    37 1   
     7     2    54 1   
     8     3    37 1   
     9     3    42 2   
    10     3    43 1   
    11     4     5 1   
    12     4    17 1   
    13     4    43 1   
    14     4    55 1   
    15     5    44 1   
    16     5    56 1   
    17     5    57 1   
    18     6    17 1   
    19     6    44 1   
    20     6    45 1   
    21     6    58 1   
    22     7    18 1   
    23     7    45 1   
    24     7    59 1   
    25     7    60 1   
    26     8    19 1   
    27     8    61 1   
    28     8    62 1   
    29     9    10 ar  
    30     9    14 ar  
    31     9    38 1   
    32    10    11 ar  
    33    10    52 1   
    34    11    12 ar  
    35    11    63 1   
    36    12    13 ar  
    37    12    51 1   
    38    13    14 ar  
    39    13    64 1   
    40    14    65 1   
    41    15    26 1   
    42    15    36 1   
    43    15    66 1   
    44    15    67 1   
    45    16    36 1   
    46    16    68 1   
    47    16    69 1   
    48    17    18 1   
    49    17    70 1   
    50    18    71 1   
    51    18    72 1   
    52    19    20 ar  
    53    19    24 ar  
    54    20    21 ar  
    55    20    73 1   
    56    21    22 ar  
    57    21    74 1   
    58    22    23 ar  
    59    22    46 1   
    60    23    24 ar  
    61    23    75 1   
    62    24    76 1   
    63    25    27 1   
    64    25    77 1   
    65    25    78 1   
    66    25    79 1   
    67    26    27 1   
    68    26    28 1   
    69    26    80 1   
    70    27    81 1   
    71    27    82 1   
    72    28    29 1   
    73    28    83 1   
    74    28    84 1   
    75    29    85 1   
    76    29    86 1   
    77    29    87 1   
    78    30    46 1   
    79    30    50 1   
    80    30    88 1   
    81    30    89 1   
    82    31    33 1   
    83    31    47 1   
    84    31    90 1   
    85    31    91 1   
    86    32    34 1   
    87    32    48 1   
    88    32    92 1   
    89    32    93 1   
    90    33    94 1   
    91    33    95 1   
    92    33    96 1   
    93    34    97 1   
    94    34    98 1   
    95    34    99 1   
    96    35    38 2   
    97    35    52 1   
    98    35   100 1   
    99    36    51 1   
   100    37   101 1   
   101    39    51 2   
   102    40    51 2   
   103    41   102 1   
   104    47    50 1   
   105    48    50 1   
   106    49    50 2   
@<TRIPOS>SUBSTRUCTURE
     1 XVV         1 TEMP              0 ****  ****    0 ROOT
