@<TRIPOS>MOLECULE
XVY
  104   107     1     0     0
SMALL
bcc


@<TRIPOS>ATOM
      1 C13         20.3180    -0.8780    15.2580 c3         1 XVY       0.134100
      2 C15         19.9940    -0.3950    16.6800 c3         1 XVY       0.098700
      3 C17         21.8090     0.0020    18.2930 c          1 XVY       0.756100
      4 C20         23.5370     0.7220    19.7520 c5         1 XVY       0.136100
      5 C21         24.8650     1.4210    19.5280 c5         1 XVY       0.129400
      6 C24         23.7990     2.7870    21.0130 c5         1 XVY       0.324900
      7 C26         21.6640     3.3420    20.4030 c5         1 XVY       0.131400
      8 C28         18.7070     0.4290    16.7820 c3         1 XVY      -0.036100
      9 C01         15.5780    -4.9920    12.5430 ca         1 XVY      -0.030300
     10 C02         15.4290    -3.7320    13.1210 ca         1 XVY      -0.137500
     11 C03         16.1500    -3.3720    14.2440 ca         1 XVY      -0.036500
     12 C04         17.0410    -4.2840    14.8000 ca         1 XVY      -0.304500
     13 C05         17.1910    -5.5490    14.2490 ca         1 XVY      -0.036500
     14 C06         16.4590    -5.8980    13.1240 ca         1 XVY      -0.137500
     15 C11         20.3560    -4.2420    14.8950 c3         1 XVY       0.199800
     16 C12         19.3790    -1.9650    14.7310 c3         1 XVY       0.206800
     17 C23         23.0010     1.4580    20.9890 c5         1 XVY      -0.145700
     18 C25         21.5490     1.9330    20.9660 c5         1 XVY      -0.105400
     19 C29         18.4410     0.8820    18.1910 ca         1 XVY      -0.116300
     20 C30         18.4310     2.2290    18.5260 ca         1 XVY      -0.085000
     21 C31         18.2320     2.6630    19.8340 ca         1 XVY      -0.186500
     22 C32         18.0700     1.7280    20.8460 ca         1 XVY       0.130100
     23 C33         18.0460     0.3700    20.5270 ca         1 XVY      -0.186500
     24 C34         18.2250    -0.0380    19.2190 ca         1 XVY      -0.085000
     25 C37         21.8410    -3.9910    15.1620 c3         1 XVY      -0.056700
     26 C38         22.1300    -3.9230    16.6600 c3         1 XVY      -0.074900
     27 C39         22.6760    -5.0460    14.4230 c3         1 XVY      -0.074900
     28 C40         22.5660    -6.4700    14.9560 c3         1 XVY      -0.087100
     29 C46         16.2760     2.5040    25.6020 c3         1 XVY       0.196400
     30 C47         20.6500     2.4790    25.5380 c3         1 XVY       0.196400
     31 C48         15.2050     2.5450    24.5350 c3         1 XVY      -0.116100
     32 C49         22.0490     2.0690    25.1490 c3         1 XVY      -0.116100
     33 N10         19.4680    -3.2240    15.4730 n3         1 XVY      -0.728500
     34 N16         21.1110     0.3680    17.2030 ns         1 XVY      -0.570900
     35 O14         20.2530     0.1590    14.3060 oh         1 XVY      -0.605800
     36 O18         21.6540    -1.0240    18.9230 o          1 XVY      -0.588000
     37 O19         22.7300     0.9310    18.5960 os         1 XVY      -0.430900
     38 O22         24.6450     2.7680    19.8870 os         1 XVY      -0.414600
     39 O27         22.8940     3.8320    20.9250 os         1 XVY      -0.393600
     40 O35         17.9420     2.0290    22.1610 os         1 XVY      -0.292900
     41 O44         17.5810     2.2510    25.0570 os         1 XVY      -0.581700
     42 O45         19.9010     2.7190    24.3340 os         1 XVY      -0.581700
     43 O50         18.3370     4.7430    24.9440 o          1 XVY      -0.801300
     44 O51         15.1780    -6.5560    10.7890 oh         1 XVY      -0.594800
     45 P43         18.4540     3.3900    24.3500 p5         1 XVY       1.442300
     46 S07         18.0660    -3.7860    16.1570 sy         1 XVY       1.297200
     47 H131        21.3320    -1.2930    15.3000 h1         1 XVY       0.052700
     48 H151        19.9030    -1.2840    17.3050 h1         1 XVY       0.101700
     49 H201        23.6680    -0.3450    19.9290 h1         1 XVY       0.085700
     50 H212        25.2150     1.3730    18.4960 h1         1 XVY       0.059200
     51 H211        25.6260     0.9550    20.1670 h1         1 XVY       0.059200
     52 H241        24.3940     2.9300    21.9220 h2         1 XVY       0.077700
     53 H262        20.8690     4.0080    20.7360 h1         1 XVY       0.050700
     54 H261        21.6650     3.3430    19.3080 h1         1 XVY       0.050700
     55 H282        18.7760     1.3020    16.1280 hc         1 XVY       0.063200
     56 H281        17.8710    -0.1680    16.4150 hc         1 XVY       0.063200
     57 H021        14.7400    -3.0180    12.6850 ha         1 XVY       0.145500
     58 H031        16.0100    -2.3900    14.6760 ha         1 XVY       0.152000
     59 H051        17.8690    -6.2710    14.6860 ha         1 XVY       0.152000
     60 H061        16.5840    -6.8860    12.7050 ha         1 XVY       0.145500
     61 H112        20.1810    -4.3030    13.8140 h1         1 XVY       0.054200
     62 H111        20.0980    -5.2110    15.3170 h1         1 XVY       0.054200
     63 H122        18.3560    -1.5850    14.7180 h1         1 XVY       0.062200
     64 H121        19.6400    -2.1610    13.6870 h1         1 XVY       0.062200
     65 H231        23.2130     0.8550    21.8730 hc         1 XVY       0.076700
     66 H252        21.1640     1.9720    21.9860 hc         1 XVY       0.073700
     67 H251        20.8700     1.3020    20.3970 hc         1 XVY       0.073700
     68 H301        18.5800     2.9730    17.7510 ha         1 XVY       0.139000
     69 H311        18.2280     3.7270    20.0320 ha         1 XVY       0.142000
     70 H331        17.9010    -0.3600    21.3140 ha         1 XVY       0.142000
     71 H341        18.2020    -1.0980    18.9970 ha         1 XVY       0.139000
     72 H362        23.7090    -3.4590    18.0670 hc         1 XVY       0.032200
     73 H361        24.2640    -4.3840    16.6790 hc         1 XVY       0.032200
     74 H363        23.8920    -2.6720    16.5040 hc         1 XVY       0.032200
     75 H371        22.1170    -3.0290    14.7170 hc         1 XVY       0.042700
     76 H382        21.4900    -3.1610    17.1090 hc         1 XVY       0.046950
     77 H381        21.8410    -4.8670    17.1340 hc         1 XVY       0.046950
     78 H392        23.7240    -4.7390    14.4460 hc         1 XVY       0.046950
     79 H391        22.3910    -5.0330    13.3670 hc         1 XVY       0.046950
     80 H402        23.1670    -7.1490    14.3510 hc         1 XVY       0.032200
     81 H403        22.9250    -6.5500    15.9830 hc         1 XVY       0.032200
     82 H401        21.5420    -6.8440    14.9360 hc         1 XVY       0.032200
     83 H412        14.8780    -4.5090    10.5990 h1         1 XVY       0.033700
     84 H411        13.7070    -5.3410    11.6090 h1         1 XVY       0.033700
     85 H422        18.8940     3.8880    22.0680 h1         1 XVY       0.069200
     86 H421        17.1600     3.9450    22.3850 h1         1 XVY       0.069200
     87 H462        16.2860     3.4310    26.1790 h1         1 XVY       0.047450
     88 H461        16.0920     1.6850    26.2960 h1         1 XVY       0.047450
     89 H471        20.6690     3.3850    26.1480 h1         1 XVY       0.047450
     90 H472        20.1630     1.6910    26.1170 h1         1 XVY       0.047450
     91 H482        14.2280     2.6240    25.0130 hc         1 XVY       0.048200
     92 H481        15.3140     3.4060    23.8750 hc         1 XVY       0.048200
     93 H483        15.2110     1.6390    23.9300 hc         1 XVY       0.048200
     94 H492        22.6320     1.8810    26.0500 hc         1 XVY       0.048200
     95 H491        22.0450     1.1560    24.5540 hc         1 XVY       0.048200
     96 H493        22.5500     2.8530    24.5810 hc         1 XVY       0.048200
     97 H161        21.2750     1.2910    16.8310 hn         1 XVY       0.320500
     98 H141        21.0290     0.7210    14.3960 ho         1 XVY       0.412000
     99 H511        14.5880    -6.7830    10.0640 ho         1 XVY       0.413000
    100 C41         14.7680    -5.3280    11.3230 c3         1 XVY       0.178700
    101 C36         23.5790    -3.5960    16.9930 c3         1 XVY      -0.087100
    102 C42         18.0720     3.3660    22.5710 c3         1 XVY      -0.054800
    103 O08         18.4040    -4.9630    16.9400 o          1 XVY      -0.603800
    104 O09         17.4180    -2.6630    16.8160 o          1 XVY      -0.603800
@<TRIPOS>BOND
     1     1     2 1   
     2     1    16 1   
     3     1    35 1   
     4     1    47 1   
     5     2     8 1   
     6     2    34 1   
     7     2    48 1   
     8     3    34 1   
     9     3    36 2   
    10     3    37 1   
    11     4     5 1   
    12     4    17 1   
    13     4    37 1   
    14     4    49 1   
    15     5    38 1   
    16     5    50 1   
    17     5    51 1   
    18     6    17 1   
    19     6    38 1   
    20     6    39 1   
    21     6    52 1   
    22     7    18 1   
    23     7    39 1   
    24     7    53 1   
    25     7    54 1   
    26     8    19 1   
    27     8    55 1   
    28     8    56 1   
    29     9    10 ar  
    30     9    14 ar  
    31     9   100 1   
    32    10    11 ar  
    33    10    57 1   
    34    11    12 ar  
    35    11    58 1   
    36    12    13 ar  
    37    12    46 1   
    38    13    14 ar  
    39    13    59 1   
    40    14    60 1   
    41    15    25 1   
    42    15    33 1   
    43    15    61 1   
    44    15    62 1   
    45    16    33 1   
    46    16    63 1   
    47    16    64 1   
    48    17    18 1   
    49    17    65 1   
    50    18    66 1   
    51    18    67 1   
    52    19    20 ar  
    53    19    24 ar  
    54    20    21 ar  
    55    20    68 1   
    56    21    22 ar  
    57    21    69 1   
    58    22    23 ar  
    59    22    40 1   
    60    23    24 ar  
    61    23    70 1   
    62    24    71 1   
    63    25    26 1   
    64    25    27 1   
    65    25    75 1   
    66    26    76 1   
    67    26    77 1   
    68    26   101 1   
    69    27    28 1   
    70    27    78 1   
    71    27    79 1   
    72    28    80 1   
    73    28    81 1   
    74    28    82 1   
    75    29    31 1   
    76    29    41 1   
    77    29    87 1   
    78    29    88 1   
    79    30    32 1   
    80    30    42 1   
    81    30    89 1   
    82    30    90 1   
    83    31    91 1   
    84    31    92 1   
    85    31    93 1   
    86    32    94 1   
    87    32    95 1   
    88    32    96 1   
    89    33    46 1   
    90    34    97 1   
    91    35    98 1   
    92    40   102 1   
    93    41    45 1   
    94    42    45 1   
    95    43    45 2   
    96    44    99 1   
    97    44   100 1   
    98    45   102 1   
    99    46   103 2   
   100    46   104 2   
   101    72   101 1   
   102    73   101 1   
   103    74   101 1   
   104    83   100 1   
   105    84   100 1   
   106    85   102 1   
   107    86   102 1   
@<TRIPOS>SUBSTRUCTURE
     1 XVY         1 TEMP              0 ****  ****    0 ROOT
