@<TRIPOS>MOLECULE
XVY
  104   107     1     0     0
SMALL
No Charge or Current Charge


@<TRIPOS>ATOM
      1 C13         20.3030    -1.1690    15.1710 c3         1 XVY       0.157300
      2 C15         20.0230    -0.6120    16.6020 c3         1 XVY       0.098700
      3 C17         21.9750    -0.2330    18.1450 c          1 XVY       0.640100
      4 C20         23.7450     0.5500    19.5390 c5         1 XVY       0.159300
      5 C21         25.0090     1.4210    19.3060 c5         1 XVY       0.152600
      6 C24         23.9380     2.5140    21.0370 c5         1 XVY       0.371300
      7 C26         21.7820     3.0340    20.3780 c5         1 XVY       0.154600
      8 C28         18.7200     0.2230    16.7430 c3         1 XVY      -0.036100
      9 C01         15.7780    -5.1880    12.0310 ca         1 XVY      -0.030300
     10 C02         15.6150    -3.8990    12.5750 ca         1 XVY      -0.119500
     11 C03         16.2210    -3.5570    13.7960 ca         1 XVY      -0.018500
     12 C04         17.0040    -4.5060    14.4860 ca         1 XVY      -0.304500
     13 C05         17.1640    -5.8000    13.9480 ca         1 XVY      -0.018500
     14 C06         16.5550    -6.1350    12.7260 ca         1 XVY      -0.119500
     15 C11         20.1910    -4.6190    14.9970 c3         1 XVY       0.199800
     16 C12         19.3090    -2.2880    14.7310 c3         1 XVY       0.206800
     17 C23         23.1930     1.1440    20.9010 c5         1 XVY      -0.145700
     18 C25         21.6790     1.5680    20.8570 c5         1 XVY      -0.105400
     19 C29         18.4980     0.7270    18.1680 ca         1 XVY      -0.116300
     20 C30         18.5330     2.1070    18.4510 ca         1 XVY      -0.067000
     21 C31         18.3600     2.5670    19.7680 ca         1 XVY      -0.168500
     22 C32         18.1570     1.6450    20.8170 ca         1 XVY       0.130100
     23 C33         18.1080     0.2720    20.5320 ca         1 XVY      -0.168500
     24 C34         18.2750    -0.1880    19.2150 ca         1 XVY      -0.067000
     25 C37         21.7140    -4.3280    14.8850 c3         1 XVY      -0.056700
     26 C38         22.3440    -4.0210    16.2780 c3         1 XVY      -0.074900
     27 C39         22.4540    -5.4550    14.1020 c3         1 XVY      -0.074900
     28 C40         22.4870    -6.8430    14.7820 c3         1 XVY      -0.087100
     29 C46         16.1740     2.7820    26.1220 c3         1 XVY       0.219600
     30 C47         19.7630     2.7190    26.2370 c3         1 XVY       0.219600
     31 C48         15.9920     4.1680    26.7750 c3         1 XVY      -0.116100
     32 C49         20.7740     3.8800    26.3200 c3         1 XVY      -0.116100
     33 N10         19.3380    -3.5320    15.5610 n3         1 XVY      -0.728500
     34 N16         21.1730     0.1550    17.1100 ns         1 XVY      -0.503900
     35 O14         20.3000    -0.1030    14.1980 oh         1 XVY      -0.668000
     36 O18         21.8870    -1.2950    18.7420 o          1 XVY      -0.539000
     37 O19         22.8520     0.7810    18.4090 os         1 XVY      -0.454100
     38 O22         24.6310     2.7200    19.7950 os         1 XVY      -0.461000
     39 O27         22.9070     3.5140    21.1350 os         1 XVY      -0.440000
     40 O35         18.0230     2.0380    22.1330 os         1 XVY      -0.316100
     41 O44         16.6980     2.8980    24.7860 os         1 XVY      -0.604900
     42 O45         19.2130     2.6570    24.9130 os         1 XVY      -0.604900
     43 O50         18.1830     5.1050    24.7920 o          1 XVY      -0.572000
     44 O51         15.9870    -5.2670     9.6080 oh         1 XVY      -0.657000
     45 P43         18.0660     3.6750    24.3840 p5         1 XVY       1.370800
     46 S07         17.7900    -4.0730    16.0500 sy         1 XVY       1.155600
     47 H131        21.3060    -1.6070    15.1990 h1         1 XVY       0.052700
     48 H151        19.9030    -1.4910    17.2500 h1         1 XVY       0.101700
     49 H201        24.0230    -0.5110    19.6080 h1         1 XVY       0.085700
     50 H212        25.2990     1.4830    18.2480 h1         1 XVY       0.059200
     51 H211        25.8640     1.0520    19.8870 h1         1 XVY       0.059200
     52 H241        24.6290     2.5470    21.8900 h2         1 XVY       0.077700
     53 H262        20.8890     3.6280    20.6100 h1         1 XVY       0.050700
     54 H261        21.9980     3.1130    19.3040 h1         1 XVY       0.050700
     55 H282        18.7570     1.0700    16.0470 hc         1 XVY       0.063200
     56 H281        17.8590    -0.3790    16.4360 hc         1 XVY       0.063200
     57 H021        15.0160    -3.1590    12.0480 ha         1 XVY       0.127500
     58 H031        16.0760    -2.5560    14.1990 ha         1 XVY       0.134000
     59 H051        17.7590    -6.5470    14.4700 ha         1 XVY       0.134000
     60 H061        16.6890    -7.1340    12.3180 ha         1 XVY       0.127500
     61 H112        19.8200    -4.8900    13.9990 h1         1 XVY       0.054200
     62 H111        20.0990    -5.5200    15.6170 h1         1 XVY       0.054200
     63 H122        18.3110    -1.8340    14.7270 h1         1 XVY       0.062200
     64 H121        19.5140    -2.5390    13.6810 h1         1 XVY       0.062200
     65 H231        23.4130     0.4800    21.7440 hc         1 XVY       0.076700
     66 H252        21.2410     1.5390    21.8610 hc         1 XVY       0.073700
     67 H251        21.0330     0.9500    20.2300 hc         1 XVY       0.073700
     68 H301        18.7030     2.8260    17.6520 ha         1 XVY       0.121000
     69 H311        18.3950     3.6350    19.9570 ha         1 XVY       0.124000
     70 H331        17.9500    -0.4400    21.3380 ha         1 XVY       0.124000
     71 H341        18.2400    -1.2560    19.0100 ha         1 XVY       0.121000
     72 H362        24.1350    -3.2350    17.2370 hc         1 XVY       0.032200
     73 H361        24.4780    -4.3060    15.8670 hc         1 XVY       0.032200
     74 H363        23.8950    -2.6480    15.5790 hc         1 XVY       0.032200
     75 H371        21.8290    -3.4360    14.2610 hc         1 XVY       0.042700
     76 H382        21.7460    -3.2540    16.7810 hc         1 XVY       0.046950
     77 H381        22.2840    -4.9080    16.9190 hc         1 XVY       0.046950
     78 H392        23.4840    -5.1400    13.8980 hc         1 XVY       0.046950
     79 H391        21.9810    -5.5650    13.1180 hc         1 XVY       0.046950
     80 H402        23.0100    -7.5620    14.1410 hc         1 XVY       0.032200
     81 H403        23.0180    -6.8030    15.7400 hc         1 XVY       0.032200
     82 H401        21.4750    -7.2260    14.9580 hc         1 XVY       0.032200
     83 H412        14.1750    -4.9970    10.6090 h1         1 XVY       0.033700
     84 H411        14.8580    -6.6250    10.7200 h1         1 XVY       0.033700
     85 H422        19.1180     3.8370    22.2440 h1         1 XVY       0.069200
     86 H421        17.3490     4.0380    22.1150 h1         1 XVY       0.069200
     87 H462        16.8250     2.1600    26.7490 h1         1 XVY       0.047450
     88 H461        15.1940     2.2880    26.0840 h1         1 XVY       0.047450
     89 H471        18.9810     2.8610    26.9950 h1         1 XVY       0.047450
     90 H472        20.2820     1.7790    26.4670 h1         1 XVY       0.047450
     91 H482        15.3840     4.0720    27.6820 hc         1 XVY       0.048200
     92 H481        16.9540     4.6020    27.0710 hc         1 XVY       0.048200
     93 H483        15.4770     4.8580    26.0950 hc         1 XVY       0.048200
     94 H492        21.3310     3.8210    27.2630 hc         1 XVY       0.048200
     95 H491        21.4960     3.8240    25.4960 hc         1 XVY       0.048200
     96 H493        20.2770     4.8550    26.2910 hc         1 XVY       0.048200
     97 H161        21.3400     1.0870    16.7550 hn         1 XVY       0.320500
     98 H141        21.1090     0.4320    14.3530 ho         1 XVY       0.451000
     99 H511        15.5060    -5.5240     8.7910 ho         1 XVY       0.452000
    100 C41         15.1140    -5.5570    10.7090 c3         1 XVY       0.201900
    101 C36         23.8040    -3.5240    16.2330 c3         1 XVY      -0.087100
    102 C42         18.1490     3.4240    22.5450 c3         1 XVY      -0.189400
    103 O08         18.0070    -5.2860    16.8450 o          1 XVY      -0.533000
    104 O09         17.1200    -2.9110    16.6430 o          1 XVY      -0.533000
@<TRIPOS>BOND
     1     1     2 1   
     2     1    16 1   
     3     1    35 1   
     4     1    47 1   
     5     2     8 1   
     6     2    34 1   
     7     2    48 1   
     8     3    34 1   
     9     3    36 2   
    10     3    37 1   
    11     4     5 1   
    12     4    17 1   
    13     4    37 1   
    14     4    49 1   
    15     5    38 1   
    16     5    50 1   
    17     5    51 1   
    18     6    17 1   
    19     6    38 1   
    20     6    39 1   
    21     6    52 1   
    22     7    18 1   
    23     7    39 1   
    24     7    53 1   
    25     7    54 1   
    26     8    19 1   
    27     8    55 1   
    28     8    56 1   
    29     9    10 ar  
    30     9    14 ar  
    31     9   100 1   
    32    10    11 ar  
    33    10    57 1   
    34    11    12 ar  
    35    11    58 1   
    36    12    13 ar  
    37    12    46 1   
    38    13    14 ar  
    39    13    59 1   
    40    14    60 1   
    41    15    25 1   
    42    15    33 1   
    43    15    61 1   
    44    15    62 1   
    45    16    33 1   
    46    16    63 1   
    47    16    64 1   
    48    17    18 1   
    49    17    65 1   
    50    18    66 1   
    51    18    67 1   
    52    19    20 ar  
    53    19    24 ar  
    54    20    21 ar  
    55    20    68 1   
    56    21    22 ar  
    57    21    69 1   
    58    22    23 ar  
    59    22    40 1   
    60    23    24 ar  
    61    23    70 1   
    62    24    71 1   
    63    25    26 1   
    64    25    27 1   
    65    25    75 1   
    66    26    76 1   
    67    26    77 1   
    68    26   101 1   
    69    27    28 1   
    70    27    78 1   
    71    27    79 1   
    72    28    80 1   
    73    28    81 1   
    74    28    82 1   
    75    29    31 1   
    76    29    41 1   
    77    29    87 1   
    78    29    88 1   
    79    30    32 1   
    80    30    42 1   
    81    30    89 1   
    82    30    90 1   
    83    31    91 1   
    84    31    92 1   
    85    31    93 1   
    86    32    94 1   
    87    32    95 1   
    88    32    96 1   
    89    33    46 1   
    90    34    97 1   
    91    35    98 1   
    92    40   102 1   
    93    41    45 1   
    94    42    45 1   
    95    43    45 2   
    96    44    99 1   
    97    44   100 1   
    98    45   102 1   
    99    46   103 2   
   100    46   104 2   
   101    72   101 1   
   102    73   101 1   
   103    74   101 1   
   104    83   100 1   
   105    84   100 1   
   106    85   102 1   
   107    86   102 1   
@<TRIPOS>SUBSTRUCTURE
     1 XVY         1 TEMP              0 ****  ****    0 ROOT
