@<TRIPOS>MOLECULE
XVZ
   40    41     1     0     0
SMALL
abcg2


@<TRIPOS>ATOM
      1 C02        -14.6460    32.2500   -40.4780 ca         1 XVZ       0.593900
      2 C03        -15.0300    31.0350   -41.0760 ca         1 XVZ      -0.226000
      3 C04        -14.1090    30.0090   -41.1700 ca         1 XVZ      -0.000300
      4 C05        -12.8210    30.2330   -40.6610 ca         1 XVZ      -0.212000
      5 C06        -12.5180    31.4590   -40.0910 ca         1 XVZ       0.390300
      6 C07        -14.4700    28.6890   -41.7880 c3         1 XVZ      -0.052800
      7 C08        -11.1420    31.7550   -39.5560 c3         1 XVZ      -0.122700
      8 C09        -10.4210    32.8000   -40.4120 c3         1 XVZ      -0.028100
      9 C11         -9.0580    33.2130   -39.9140 ca         1 XVZ      -0.075300
     10 C12         -8.4050    32.6190   -38.8350 ca         1 XVZ      -0.104000
     11 C13         -7.1420    33.0310   -38.4050 ca         1 XVZ      -0.063300
     12 C14         -6.5050    34.0720   -39.0770 ca         1 XVZ      -0.131000
     13 C15         -7.1420    34.6710   -40.1470 ca         1 XVZ       0.137000
     14 C16         -8.3930    34.2510   -40.5590 ca         1 XVZ       0.120000
     15 C17         -6.4610    32.3270   -37.2610 c3         1 XVZ      -0.035100
     16 C18         -5.6710    31.1010   -37.7270 c3         1 XVZ       0.151800
     17 F15         -6.5450    35.6890   -40.8080 f          1 XVZ      -0.167000
     18 F16         -8.9760    34.8770   -41.6080 f          1 XVZ      -0.167000
     19 N01        -13.4170    32.4540   -39.9980 nb         1 XVZ      -0.748000
     20 N02        -15.5560    33.2710   -40.3180 nv         1 XVZ      -1.051900
     21 N19         -5.0340    30.4350   -36.5850 n8         1 XVZ      -1.003200
     22 H1         -16.0380    30.9160   -41.4550 ha         1 XVZ       0.119000
     23 H2         -12.0660    29.4590   -40.7140 ha         1 XVZ       0.121000
     24 H3         -13.7500    28.4140   -42.5620 hc         1 XVZ       0.047367
     25 H4         -14.4490    27.8970   -41.0340 hc         1 XVZ       0.047367
     26 H5         -15.4650    28.7150   -42.2290 hc         1 XVZ       0.047367
     27 H6         -10.5630    30.8310   -39.5200 hc         1 XVZ       0.056200
     28 H7         -11.2350    32.1260   -38.5320 hc         1 XVZ       0.056200
     29 H8         -11.0530    33.6880   -40.4890 hc         1 XVZ       0.068200
     30 H9         -10.3220    32.4190   -41.4340 hc         1 XVZ       0.068200
     31 H10         -8.8910    31.8110   -38.3040 ha         1 XVZ       0.123000
     32 H11         -5.5270    34.4250   -38.7770 ha         1 XVZ       0.133000
     33 H12         -5.7770    33.0170   -36.7580 hc         1 XVZ       0.058200
     34 H13         -7.2020    32.0080   -36.5260 hc         1 XVZ       0.058200
     35 H14         -6.3570    30.3910   -38.1970 h1         1 XVZ       0.032700
     36 H15         -4.9550    31.4150   -38.4980 h1         1 XVZ       0.032700
     37 H16        -15.1580    34.1840   -40.1570 hn         1 XVZ       0.467000
     38 H17        -16.3560    33.2690   -40.9310 hn         1 XVZ       0.467000
     39 H18         -4.5470    29.6030   -36.9020 hn         1 XVZ       0.395000
     40 H19         -4.3210    31.0430   -36.1920 hn         1 XVZ       0.395000
@<TRIPOS>BOND
     1     1     2 ar  
     2     1    19 ar  
     3     1    20 1   
     4     2     3 ar  
     5     2    22 1   
     6     3     4 ar  
     7     3     6 1   
     8     4     5 ar  
     9     4    23 1   
    10     5     7 1   
    11     5    19 ar  
    12     6    24 1   
    13     6    25 1   
    14     6    26 1   
    15     7     8 1   
    16     7    27 1   
    17     7    28 1   
    18     8     9 1   
    19     8    29 1   
    20     8    30 1   
    21     9    10 ar  
    22     9    14 ar  
    23    10    11 ar  
    24    10    31 1   
    25    11    12 ar  
    26    11    15 1   
    27    12    13 ar  
    28    12    32 1   
    29    13    14 ar  
    30    13    17 1   
    31    14    18 1   
    32    15    16 1   
    33    15    33 1   
    34    15    34 1   
    35    16    21 1   
    36    16    35 1   
    37    16    36 1   
    38    20    37 1   
    39    20    38 1   
    40    21    39 1   
    41    21    40 1   
@<TRIPOS>SUBSTRUCTURE
     1 XVZ         1 TEMP              0 ****  ****    0 ROOT
