@<TRIPOS>MOLECULE
XVZ
   40    41     1     0     0
SMALL
No Charge or Current Charge


@<TRIPOS>ATOM
      1 C02        -14.8090    31.9500   -39.9730 ca         1 XVZ       0.593900
      2 C03        -15.1160    30.9470   -40.8950 ca         1 XVZ      -0.226000
      3 C04        -14.0680    30.1670   -41.4060 ca         1 XVZ      -0.000300
      4 C05        -12.7710    30.4510   -40.9490 ca         1 XVZ      -0.212000
      5 C06        -12.5750    31.4890   -40.0170 ca         1 XVZ       0.390300
      6 C07        -14.3260    29.0560   -42.4090 c3         1 XVZ      -0.052800
      7 C08        -11.1800    31.8270   -39.5130 c3         1 XVZ      -0.122700
      8 C09        -10.4090    32.7440   -40.4940 c3         1 XVZ      -0.028100
      9 C11         -8.9760    33.1290   -40.0940 ca         1 XVZ      -0.075300
     10 C12         -8.3770    32.6960   -38.8860 ca         1 XVZ      -0.104000
     11 C13         -7.0600    33.0700   -38.5540 ca         1 XVZ      -0.063300
     12 C14         -6.3250    33.8840   -39.4340 ca         1 XVZ      -0.131000
     13 C15         -6.9050    34.3200   -40.6330 ca         1 XVZ       0.137000
     14 C16         -8.2210    33.9480   -40.9630 ca         1 XVZ       0.120000
     15 C17         -6.4340    32.5880   -37.2510 c3         1 XVZ      -0.035100
     16 C18         -5.8680    31.1580   -37.3750 c3         1 XVZ       0.151800
     17 F15         -6.1870    35.1040   -41.4720 f          1 XVZ      -0.167000
     18 F16         -8.7650    34.3790   -42.1270 f          1 XVZ      -0.167000
     19 N01        -13.5920    32.2370   -39.5340 nb         1 XVZ      -0.748000
     20 N02        -15.7210    32.7580   -39.4280 nv         1 XVZ      -1.051900
     21 N19         -5.2630    30.6900   -36.1100 n8         1 XVZ      -1.003200
     22 H1         -16.1430    30.7780   -41.2030 ha         1 XVZ       0.119000
     23 H2         -11.9210    29.8790   -41.3100 ha         1 XVZ       0.121000
     24 H3         -13.4810    28.9380   -43.0990 hc         1 XVZ       0.047367
     25 H4         -14.4790    28.0970   -41.8990 hc         1 XVZ       0.047367
     26 H5         -15.2180    29.2610   -43.0130 hc         1 XVZ       0.047367
     27 H6         -10.6160    30.8980   -39.3670 hc         1 XVZ       0.056200
     28 H7         -11.2420    32.3150   -38.5330 hc         1 XVZ       0.056200
     29 H8         -10.9970    33.6600   -40.6370 hc         1 XVZ       0.068200
     30 H9         -10.3830    32.2500   -41.4740 hc         1 XVZ       0.068200
     31 H10         -8.9230    32.0650   -38.1900 ha         1 XVZ       0.123000
     32 H11         -5.3060    34.1780   -39.1940 ha         1 XVZ       0.133000
     33 H12         -5.6310    33.2690   -36.9410 hc         1 XVZ       0.058200
     34 H13         -7.1810    32.6100   -36.4480 hc         1 XVZ       0.058200
     35 H14         -6.6760    30.4670   -37.6550 h1         1 XVZ       0.032700
     36 H15         -5.1030    31.1320   -38.1640 h1         1 XVZ       0.032700
     37 H16        -15.3420    33.5770   -38.9700 hn         1 XVZ       0.467000
     38 H17        -16.5990    32.8780   -39.9210 hn         1 XVZ       0.467000
     39 H18         -4.8570    29.7570   -36.2580 hn         1 XVZ       0.395000
     40 H19         -4.4460    31.2740   -35.8940 hn         1 XVZ       0.395000
@<TRIPOS>BOND
     1     1     2 ar  
     2     1    19 ar  
     3     1    20 1   
     4     2     3 ar  
     5     2    22 1   
     6     3     4 ar  
     7     3     6 1   
     8     4     5 ar  
     9     4    23 1   
    10     5     7 1   
    11     5    19 ar  
    12     6    24 1   
    13     6    25 1   
    14     6    26 1   
    15     7     8 1   
    16     7    27 1   
    17     7    28 1   
    18     8     9 1   
    19     8    29 1   
    20     8    30 1   
    21     9    10 ar  
    22     9    14 ar  
    23    10    11 ar  
    24    10    31 1   
    25    11    12 ar  
    26    11    15 1   
    27    12    13 ar  
    28    12    32 1   
    29    13    14 ar  
    30    13    17 1   
    31    14    18 1   
    32    15    16 1   
    33    15    33 1   
    34    15    34 1   
    35    16    21 1   
    36    16    35 1   
    37    16    36 1   
    38    20    37 1   
    39    20    38 1   
    40    21    39 1   
    41    21    40 1   
@<TRIPOS>SUBSTRUCTURE
     1 XVZ         1 TEMP              0 ****  ****    0 ROOT
