@<TRIPOS>MOLECULE
XW1
   30    29     1     0     0
SMALL
No Charge or Current Charge


@<TRIPOS>ATOM
      1 C1         -32.9720    30.0310    25.2420 c          1 XW1       0.650100
      2 N          -39.7960    32.6900    22.8970 n8         1 XW1      -0.890800
      3 CA         -38.3420    32.5970    22.4960 c3         1 XW1       0.015500
      4 C13        -37.5790    31.7070    23.5150 c3         1 XW1      -0.045400
      5 C14        -36.0430    31.7040    23.3280 c3         1 XW1      -0.074400
      6 C15        -35.3070    30.8610    24.3930 c3         1 XW1      -0.066400
      7 C17        -33.7690    30.8610    24.2040 c3         1 XW1      -0.182400
      8 C          -38.0440    32.1610    20.9940 c          1 XW1       0.898600
      9 O          -38.5250    31.1120    20.5760 o          1 XW1      -0.841800
     10 O91        -33.5120    29.5190    26.2120 o          1 XW1      -0.500000
     11 O92        -31.5990    30.1630    25.1950 os         1 XW1      -0.445900
     12 C93        -30.8940    30.4810    23.9750 c3         1 XW1       0.158400
     13 C94        -30.8810    29.2300    23.0710 c3         1 XW1      -0.124100
     14 OXT        -37.4580    32.9480    20.2580 o          1 XW1      -0.841800
     15 HA         -37.9370    33.6130    22.6010 h1         1 XW1       0.036700
     16 H13        -37.8040    32.0550    24.5320 hc         1 XW1       0.025700
     17 H13A       -37.9490    30.6770    23.4450 hc         1 XW1       0.025700
     18 H14        -35.7940    31.3140    22.3340 hc         1 XW1       0.048200
     19 H14A       -35.6730    32.7370    23.3690 hc         1 XW1       0.048200
     20 H15        -35.5490    31.2490    25.3900 hc         1 XW1       0.045700
     21 H9         -35.6750    29.8280    24.3520 hc         1 XW1       0.045700
     22 H17        -33.3730    31.8820    24.2220 hc         1 XW1       0.062200
     23 H111       -33.4960    30.5340    23.1960 hc         1 XW1       0.062200
     24 H93        -31.3250    31.3410    23.4470 h1         1 XW1       0.049200
     25 H11        -29.8540    30.7400    24.2110 h1         1 XW1       0.049200
     26 H94        -30.3060    29.4320    22.1600 hc         1 XW1       0.047033
     27 H94A       -30.4090    28.3880    23.5900 hc         1 XW1       0.047033
     28 H141       -31.8920    28.9310    22.7740 hc         1 XW1       0.047033
     29 HN         -40.2780    33.3420    22.2680 hn         1 XW1       0.326800
     30 H2         -40.2450    31.7870    22.7080 hn         1 XW1       0.326800
@<TRIPOS>BOND
     1     1     7 1   
     2     1    10 2   
     3     1    11 1   
     4     2     3 1   
     5     2    29 1   
     6     2    30 1   
     7     3     4 1   
     8     3     8 1   
     9     3    15 1   
    10     4     5 1   
    11     4    16 1   
    12     4    17 1   
    13     5     6 1   
    14     5    18 1   
    15     5    19 1   
    16     6     7 1   
    17     6    20 1   
    18     6    21 1   
    19     7    22 1   
    20     7    23 1   
    21     8     9 1   
    22     8    14 1   
    23    11    12 1   
    24    12    13 1   
    25    12    24 1   
    26    12    25 1   
    27    13    26 1   
    28    13    27 1   
    29    13    28 1   
@<TRIPOS>SUBSTRUCTURE
     1 XW1         1 TEMP              0 ****  ****    0 ROOT
