@<TRIPOS>MOLECULE
XW1
   30    29     1     0     0
SMALL
bcc


@<TRIPOS>ATOM
      1 C1         -33.0600    30.0960    25.2540 c          1 XW1       0.650100
      2 N          -39.6840    32.6450    22.8900 n8         1 XW1      -0.890800
      3 CA         -38.2770    32.5980    22.4970 c3         1 XW1       0.015500
      4 C13        -37.5210    31.7330    23.5080 c3         1 XW1      -0.045400
      5 C14        -36.0110    31.6960    23.3160 c3         1 XW1      -0.074400
      6 C15        -35.3070    30.9130    24.4180 c3         1 XW1      -0.066400
      7 C17        -33.8000    30.8920    24.2090 c3         1 XW1      -0.182400
      8 C          -38.0400    32.0670    21.0620 c          1 XW1       0.898600
      9 O          -38.7330    31.0830    20.7230 o          1 XW1      -0.841800
     10 O91        -33.5980    29.5880    26.2060 o          1 XW1      -0.500000
     11 O92        -31.7380    29.9610    25.1510 os         1 XW1      -0.445900
     12 C93        -30.9910    30.4040    24.0110 c3         1 XW1       0.158400
     13 C94        -30.9120    29.3330    22.9460 c3         1 XW1      -0.124100
     14 OXT        -37.1660    32.6370    20.3770 o          1 XW1      -0.841800
     15 HA         -37.8820    33.6180    22.5650 h1         1 XW1       0.036700
     16 H13        -37.7460    32.1100    24.5110 hc         1 XW1       0.025700
     17 H13A       -37.9170    30.7120    23.4680 hc         1 XW1       0.025700
     18 H14        -35.7610    31.2510    22.3490 hc         1 XW1       0.048200
     19 H14A       -35.6230    32.7200    23.2890 hc         1 XW1       0.048200
     20 H15        -35.5430    31.3540    25.3900 hc         1 XW1       0.045700
     21 H9         -35.6920    29.8900    24.4390 hc         1 XW1       0.045700
     22 H17        -33.4130    31.9160    24.2100 hc         1 XW1       0.062200
     23 H111       -33.5700    30.4970    23.2150 hc         1 XW1       0.062200
     24 H93        -31.3960    31.3340    23.6100 h1         1 XW1       0.049200
     25 H11        -29.9970    30.6280    24.3970 h1         1 XW1       0.049200
     26 H94        -30.2680    29.6770    22.1360 hc         1 XW1       0.047033
     27 H94A       -30.4870    28.4120    23.3440 hc         1 XW1       0.047033
     28 H141       -31.8880    29.1050    22.5180 hc         1 XW1       0.047033
     29 HN         -40.1690    33.3020    22.2890 hn         1 XW1       0.326800
     30 H2         -40.0900    31.7440    22.6600 hn         1 XW1       0.326800
@<TRIPOS>BOND
     1     1     7 1   
     2     1    10 2   
     3     1    11 1   
     4     2     3 1   
     5     2    29 1   
     6     2    30 1   
     7     3     4 1   
     8     3     8 1   
     9     3    15 1   
    10     4     5 1   
    11     4    16 1   
    12     4    17 1   
    13     5     6 1   
    14     5    18 1   
    15     5    19 1   
    16     6     7 1   
    17     6    20 1   
    18     6    21 1   
    19     7    22 1   
    20     7    23 1   
    21     8     9 1   
    22     8    14 1   
    23    11    12 1   
    24    12    13 1   
    25    12    24 1   
    26    12    25 1   
    27    13    26 1   
    28    13    27 1   
    29    13    28 1   
@<TRIPOS>SUBSTRUCTURE
     1 XW1         1 TEMP              0 ****  ****    0 ROOT
