@<TRIPOS>MOLECULE
XW3
   57    61     1     0     0
SMALL
No Charge or Current Charge


@<TRIPOS>ATOM
      1 C1         -21.0880   -26.7580   -25.6320 c3         1 XW3       0.229100
      2 C3         -23.6260   -27.1130   -25.5560 ca         1 XW3       0.424900
      3 C7         -27.5250   -26.1450   -26.5020 cc         1 XW3      -0.032200
      4 C8         -27.7550   -25.0760   -27.3540 cd         1 XW3      -0.161400
      5 C9         -26.6400   -24.1510   -27.7610 c          1 XW3       0.585200
      6 C13        -23.3760   -24.3090   -29.0620 c6         1 XW3       0.359300
      7 C15        -23.6060   -24.9680   -31.3640 c6         1 XW3       0.139100
      8 C16        -22.3880   -24.0820   -31.7650 c6         1 XW3       0.089500
      9 C20        -25.0800   -25.6980   -26.6150 ca         1 XW3       0.313900
     10 C22        -29.1570   -24.7110   -27.6720 ca         1 XW3      -0.012800
     11 C24        -31.4490   -24.3380   -26.8870 ca         1 XW3      -0.086000
     12 C27        -29.5860   -24.3990   -28.9870 ca         1 XW3       0.139000
     13 C31        -34.7340   -22.2520   -29.7390 ca         1 XW3       0.330900
     14 C32        -35.8810   -22.7820   -29.1230 ca         1 XW3      -0.139000
     15 C33        -35.7360   -23.7850   -28.1480 ca         1 XW3      -0.117000
     16 C34        -34.4380   -24.2100   -27.8210 ca         1 XW3       0.128000
     17 N2         -22.3240   -27.4600   -25.2350 nu         1 XW3      -0.912100
     18 N4         -24.5760   -27.9240   -25.0720 nb         1 XW3      -0.265000
     19 C5         -25.8460   -27.6000   -25.3780 ca         1 XW3       0.207900
     20 C6         -26.1500   -26.4740   -26.1630 ca         1 XW3      -0.305800
     21 O10        -26.8520   -23.0930   -28.3410 o          1 XW3      -0.503000
     22 N11        -25.3300   -24.5350   -27.4010 n          1 XW3      -0.357300
     23 O14        -24.2550   -24.4160   -30.1980 os         1 XW3      -0.455000
     24 N17        -21.6150   -24.6720   -32.9020 n8         1 XW3      -0.992200
     25 C18        -21.5050   -23.8490   -30.5010 c6         1 XW3       0.139100
     26 O19        -22.3230   -23.3870   -29.4040 os         1 XW3      -0.455000
     27 N21        -23.8070   -26.0170   -26.3080 nb         1 XW3      -0.318000
     28 C23        -30.1140   -24.6970   -26.6360 ca         1 XW3      -0.099000
     29 C25        -31.8890   -24.0040   -28.1920 cp         1 XW3      -0.133500
     30 C26        -30.9240   -24.0460   -29.2320 ca         1 XW3      -0.066000
     31 Cl28       -28.5280   -24.5920   -30.3900 cl         1 XW3      -0.186000
     32 C29        -33.3150   -23.6150   -28.4770 cp         1 XW3       0.376500
     33 N30        -33.4810   -22.6600   -29.4300 nb         1 XW3      -0.649000
     34 H1         -20.2060   -27.2730   -25.2260 h1         1 XW3       0.044367
     35 H2         -20.9960   -26.7270   -26.7260 h1         1 XW3       0.044367
     36 H3         -21.0910   -25.7270   -25.2530 h1         1 XW3       0.044367
     37 H4         -28.3530   -26.7620   -26.1580 ha         1 XW3       0.192000
     38 H5         -23.4780   -23.5560   -27.0390 h1         1 XW3       0.091200
     39 H6         -24.5080   -22.7040   -28.1690 h1         1 XW3       0.091200
     40 H7         -22.9640   -25.2920   -28.7900 h2         1 XW3       0.037700
     41 H8         -24.3300   -25.0130   -32.1890 h1         1 XW3       0.049450
     42 H9         -23.2780   -25.9930   -31.1380 h1         1 XW3       0.049450
     43 H10        -22.7770   -23.1060   -32.0960 h1         1 XW3       0.088700
     44 H11        -32.1410   -24.3000   -26.0490 ha         1 XW3       0.124000
     45 H12        -34.8200   -21.4810   -30.5030 h4         1 XW3       0.027100
     46 H13        -36.8660   -22.4220   -29.4090 ha         1 XW3       0.129000
     47 H14        -36.6030   -24.2260   -27.6630 ha         1 XW3       0.137000
     48 H15        -22.2290   -28.2990   -24.6600 hn         1 XW3       0.515000
     49 H16        -26.6260   -28.2550   -24.9930 h4         1 XW3       0.025100
     50 H17        -20.8290   -24.0530   -33.1380 hn         1 XW3       0.397500
     51 H18        -21.1530   -25.5370   -32.5920 hn         1 XW3       0.397500
     52 H20        -21.0050   -24.7820   -30.2040 h1         1 XW3       0.049450
     53 H21        -20.7310   -23.0960   -30.7100 h1         1 XW3       0.049450
     54 H22        -29.8170   -24.9260   -25.6150 ha         1 XW3       0.119000
     55 H23        -31.2250   -23.8280   -30.2540 ha         1 XW3       0.144000
     56 C12        -24.1750   -23.7050   -27.8720 c3         1 XW3       0.105000
     57 F35        -34.2920   -25.2030   -26.9120 f          1 XW3      -0.168000
@<TRIPOS>BOND
     1     1    17 1   
     2     1    34 1   
     3     1    35 1   
     4     1    36 1   
     5     2    17 1   
     6     2    18 ar  
     7     2    27 ar  
     8     3     4 2   
     9     3    20 1   
    10     3    37 1   
    11     4     5 1   
    12     4    10 1   
    13     5    21 2   
    14     5    22 1   
    15     6    23 1   
    16     6    26 1   
    17     6    40 1   
    18     6    56 1   
    19     7     8 1   
    20     7    23 1   
    21     7    41 1   
    22     7    42 1   
    23     8    24 1   
    24     8    25 1   
    25     8    43 1   
    26     9    20 ar  
    27     9    22 1   
    28     9    27 ar  
    29    10    12 ar  
    30    10    28 ar  
    31    11    28 ar  
    32    11    29 ar  
    33    11    44 1   
    34    12    30 ar  
    35    12    31 1   
    36    13    14 ar  
    37    13    33 ar  
    38    13    45 1   
    39    14    15 ar  
    40    14    46 1   
    41    15    16 ar  
    42    15    47 1   
    43    16    32 ar  
    44    16    57 1   
    45    17    48 1   
    46    18    19 ar  
    47    19    20 ar  
    48    19    49 1   
    49    22    56 1   
    50    24    50 1   
    51    24    51 1   
    52    25    26 1   
    53    25    52 1   
    54    25    53 1   
    55    28    54 1   
    56    29    30 ar  
    57    29    32 1   
    58    30    55 1   
    59    32    33 ar  
    60    38    56 1   
    61    39    56 1   
@<TRIPOS>SUBSTRUCTURE
     1 XW3         1 TEMP              0 ****  ****    0 ROOT
