@<TRIPOS>MOLECULE
XW3
   57    61     1     0     0
SMALL
abcg2


@<TRIPOS>ATOM
      1 C1         -21.1730   -26.6110   -25.7660 c3         1 XW3       0.229100
      2 C3         -23.5520   -27.1790   -25.6670 ca         1 XW3       0.424900
      3 C7         -27.4500   -26.3390   -26.5880 cc         1 XW3      -0.032200
      4 C8         -27.7240   -25.2240   -27.2990 cd         1 XW3      -0.161400
      5 C9         -26.6570   -24.3170   -27.7080 c          1 XW3       0.585200
      6 C13        -23.5070   -24.3040   -28.9580 c6         1 XW3       0.359300
      7 C15        -23.7580   -24.9530   -31.1760 c6         1 XW3       0.139100
      8 C16        -22.6660   -23.9810   -31.6040 c6         1 XW3       0.089500
      9 C20        -25.0710   -25.8190   -26.6520 ca         1 XW3       0.313900
     10 C22        -29.1050   -24.8230   -27.6250 ca         1 XW3      -0.012800
     11 C24        -31.2870   -24.0710   -26.8780 ca         1 XW3      -0.086000
     12 C27        -29.5930   -24.8000   -28.9300 ca         1 XW3       0.139000
     13 C31        -34.4370   -22.4590   -30.0470 ca         1 XW3       0.330900
     14 C32        -35.5960   -22.7060   -29.3250 ca         1 XW3      -0.139000
     15 C33        -35.4960   -23.4500   -28.1630 ca         1 XW3      -0.117000
     16 C34        -34.2460   -23.8920   -27.7860 ca         1 XW3       0.128000
     17 N2         -22.2790   -27.4450   -25.3700 nu         1 XW3      -0.912100
     18 N4         -24.4740   -28.0680   -25.2290 nb         1 XW3      -0.265000
     19 C5         -25.7190   -27.7970   -25.5260 ca         1 XW3       0.207900
     20 C6         -26.1140   -26.6660   -26.2490 ca         1 XW3      -0.305800
     21 O10        -26.8750   -23.2750   -28.2990 o          1 XW3      -0.503000
     22 N11        -25.3550   -24.6820   -27.3580 n          1 XW3      -0.357300
     23 O14        -24.4070   -24.4940   -30.0050 os         1 XW3      -0.455000
     24 N17        -21.9570   -24.5200   -32.7460 n8         1 XW3      -0.992200
     25 C18        -21.7790   -23.6990   -30.3920 c6         1 XW3       0.139100
     26 O19        -22.5550   -23.3310   -29.2650 os         1 XW3      -0.455000
     27 N21        -23.8070   -26.0740   -26.3660 nb         1 XW3      -0.318000
     28 C23        -29.9810   -24.4510   -26.6110 ca         1 XW3      -0.099000
     29 C25        -31.7540   -24.0430   -28.1890 cp         1 XW3      -0.133500
     30 C26        -30.8880   -24.4130   -29.2180 ca         1 XW3      -0.066000
     31 CL28       -28.5710   -25.3060   -30.2330 cl         1 XW3      -0.186000
     32 C29        -33.1170   -23.5930   -28.5440 cp         1 XW3       0.376500
     33 N30        -33.2450   -22.8900   -29.6670 nb         1 XW3      -0.649000
     34 H1         -20.2580   -27.0610   -25.3920 h1         1 XW3       0.044367
     35 H2         -21.0980   -26.5250   -26.8510 h1         1 XW3       0.044367
     36 H3         -21.2560   -25.6050   -25.3520 h1         1 XW3       0.044367
     37 H4         -28.2510   -27.0000   -26.2740 ha         1 XW3       0.192000
     38 H5         -23.5710   -23.7080   -26.9030 h1         1 XW3       0.091200
     39 H6         -24.6780   -22.8160   -27.9470 h1         1 XW3       0.091200
     40 H7         -22.9990   -25.2580   -28.7330 h2         1 XW3       0.037700
     41 H8         -24.5180   -25.0540   -31.9520 h1         1 XW3       0.049450
     42 H9         -23.3190   -25.9480   -31.0030 h1         1 XW3       0.049450
     43 H10        -23.1430   -23.0450   -31.9130 h1         1 XW3       0.088700
     44 H11        -31.9150   -23.7620   -26.0550 ha         1 XW3       0.124000
     45 H12        -34.4740   -21.8900   -30.9680 h4         1 XW3       0.027100
     46 H13        -36.5510   -22.3310   -29.6660 ha         1 XW3       0.129000
     47 H14        -36.3650   -23.6920   -27.5640 ha         1 XW3       0.137000
     48 H15        -22.0990   -28.2820   -24.8410 hn         1 XW3       0.515000
     49 H16        -26.4740   -28.4980   -25.1840 h4         1 XW3       0.025100
     50 H17        -21.2920   -23.8420   -33.0950 hn         1 XW3       0.397500
     51 H18        -21.4150   -25.3310   -32.4690 hn         1 XW3       0.397500
     52 H20        -21.1800   -24.5950   -30.1660 h1         1 XW3       0.049450
     53 H21        -21.0870   -22.8790   -30.5910 h1         1 XW3       0.049450
     54 H22        -29.6230   -24.4430   -25.5900 ha         1 XW3       0.119000
     55 H23        -31.2340   -24.4060   -30.2430 ha         1 XW3       0.144000
     56 C12        -24.2620   -23.7990   -27.7380 c3         1 XW3       0.105000
     57 F35        -34.1350   -24.6410   -26.6820 f          1 XW3      -0.168000
@<TRIPOS>BOND
     1     1    17 1   
     2     1    34 1   
     3     1    35 1   
     4     1    36 1   
     5     2    17 1   
     6     2    18 ar  
     7     2    27 ar  
     8     3     4 2   
     9     3    20 1   
    10     3    37 1   
    11     4     5 1   
    12     4    10 1   
    13     5    21 2   
    14     5    22 1   
    15     6    23 1   
    16     6    26 1   
    17     6    40 1   
    18     6    56 1   
    19     7     8 1   
    20     7    23 1   
    21     7    41 1   
    22     7    42 1   
    23     8    24 1   
    24     8    25 1   
    25     8    43 1   
    26     9    20 ar  
    27     9    22 1   
    28     9    27 ar  
    29    10    12 ar  
    30    10    28 ar  
    31    11    28 ar  
    32    11    29 ar  
    33    11    44 1   
    34    12    30 ar  
    35    12    31 1   
    36    13    14 ar  
    37    13    33 ar  
    38    13    45 1   
    39    14    15 ar  
    40    14    46 1   
    41    15    16 ar  
    42    15    47 1   
    43    16    32 ar  
    44    16    57 1   
    45    17    48 1   
    46    18    19 ar  
    47    19    20 ar  
    48    19    49 1   
    49    22    56 1   
    50    24    50 1   
    51    24    51 1   
    52    25    26 1   
    53    25    52 1   
    54    25    53 1   
    55    28    54 1   
    56    29    30 ar  
    57    29    32 1   
    58    30    55 1   
    59    32    33 ar  
    60    38    56 1   
    61    39    56 1   
@<TRIPOS>SUBSTRUCTURE
     1 XW3         1 TEMP              0 ****  ****    0 ROOT
