@<TRIPOS>MOLECULE
XW4
  103   107     1     0     0
SMALL
No Charge or Current Charge


@<TRIPOS>ATOM
      1 C13         71.6880    57.1210    15.2220 c3         1 XW4       0.148300
      2 C15         71.3630    57.7050    16.6330 c3         1 XW4       0.143700
      3 C17         73.2820    58.0850    18.2110 c          1 XW4       0.640100
      4 C20         75.0210    58.8730    19.6400 c5         1 XW4       0.162300
      5 C21         76.2740    59.7700    19.4540 c5         1 XW4       0.152600
      6 C24         75.1360    60.8190    21.1710 c5         1 XW4       0.372300
      7 C26         72.9950    61.3190    20.4530 c5         1 XW4       0.154600
      8 C28         70.0700    58.5660    16.7050 c3         1 XW4      -0.038100
      9 C01         67.1990    53.1400    12.0670 ca         1 XW4       0.109100
     10 C02         67.9230    52.2130    12.7620 ca         1 XW4       0.031100
     11 C03         68.5170    52.5150    13.9930 ca         1 XW4      -0.010000
     12 C04         68.3590    53.8260    14.5070 ca         1 XW4      -0.312500
     13 C05         67.5980    54.7850    13.7850 ca         1 XW4      -0.009000
     14 C06         67.0100    54.4400    12.5500 ca         1 XW4      -0.124000
     15 C11         71.5340    53.6730    15.0990 c3         1 XW4       0.205800
     16 C12         70.6920    56.0090    14.7670 c3         1 XW4       0.182800
     17 C23         74.4160    59.4400    20.9900 c5         1 XW4      -0.146700
     18 C25         72.8990    59.8450    20.9050 c5         1 XW4      -0.099400
     19 C29         69.8250    59.1760    18.0840 ca         1 XW4      -0.087300
     20 C30         69.6280    58.3480    19.2070 ca         1 XW4      -0.085500
     21 C31         69.4250    58.9140    20.4780 ca         1 XW4      -0.134000
     22 C32         69.4070    60.3080    20.6410 ca         1 XW4       0.096100
     23 C33         69.5860    61.1410    19.5170 ca         1 XW4      -0.134000
     24 C34         69.7980    60.5750    18.2480 ca         1 XW4      -0.085500
     25 C37         73.8060    51.4170    14.9820 c3         1 XW4      -0.087600
     26 C38         73.0640    53.9430    15.0270 c3         1 XW4      -0.056700
     27 C39         73.8120    52.7960    14.2820 c3         1 XW4      -0.074900
     28 C40         73.6560    54.2610    16.4340 c3         1 XW4      -0.074900
     29 C41         75.1220    54.7420    16.4250 c3         1 XW4      -0.087600
     30 C43         69.1330    62.2350    22.1850 c3         1 XW4      -0.225400
     31 C47         71.3910    61.5570    24.0710 c3         1 XW4       0.230100
     32 C48         67.9140    61.3390    26.0550 c3         1 XW4       0.230100
     33 C49         72.5630    61.4590    25.0570 c3         1 XW4      -0.111600
     34 C50         66.7150    62.2640    26.3440 c3         1 XW4      -0.111600
     35 C52         67.2490    51.2800    10.8730 c5         1 XW4       0.372600
     36 N10         70.6800    54.7800    15.6180 n3         1 XW4      -0.738500
     37 N16         72.5070    58.4650    17.1550 ns         1 XW4      -0.498900
     38 O08         68.4480    55.4450    16.6450 o          1 XW4      -0.532500
     39 O09         69.2970    53.0590    16.8940 o          1 XW4      -0.532500
     40 O14         71.7400    58.1760    14.2360 oh         1 XW4      -0.661000
     41 O18         73.1580    57.0420    18.8330 o          1 XW4      -0.546000
     42 O19         74.1610    59.0960    18.4830 os         1 XW4      -0.454100
     43 O22         75.8590    61.0550    19.9510 os         1 XW4      -0.459000
     44 O27         74.0870    61.8010    21.2560 os         1 XW4      -0.439000
     45 O35         67.9700    51.0120    12.1290 os         1 XW4      -0.338100
     46 O36         69.2280    60.8100    21.9150 os         1 XW4      -0.348100
     47 O42         66.6960    52.6440    10.9080 os         1 XW4      -0.336100
     48 O45         70.4840    62.5390    24.5830 os         1 XW4      -0.610900
     49 O46         68.2630    61.3950    24.6630 os         1 XW4      -0.610900
     50 O51         68.3250    64.0030    24.2320 o          1 XW4      -0.550000
     51 P44         68.9820    62.6860    23.9920 p5         1 XW4       1.389800
     52 S07         69.1150    54.2670    16.0810 sy         1 XW4       1.167600
     53 H131        72.6830    56.6720    15.3010 h1         1 XW4       0.055700
     54 H151        71.2070    56.8430    17.2960 h1         1 XW4       0.097700
     55 H201        75.3160    57.8160    19.7050 h1         1 XW4       0.084700
     56 H212        77.1200    59.4070    20.0540 h1         1 XW4       0.059700
     57 H211        76.5930    59.8530    18.4070 h1         1 XW4       0.059700
     58 H241        75.8020    60.8480    22.0440 h2         1 XW4       0.081700
     59 H262        73.2450    61.4180    19.3880 h1         1 XW4       0.052200
     60 H261        72.0850    61.8960    20.6640 h1         1 XW4       0.052200
     61 H282        70.1300    59.3620    15.9540 hc         1 XW4       0.066200
     62 H281        69.2060    57.9560    16.4220 hc         1 XW4       0.066200
     63 H031        69.0840    51.7550    14.5270 ha         1 XW4       0.156000
     64 H051        67.4580    55.7910    14.1770 ha         1 XW4       0.139000
     65 H061        66.4240    55.1620    11.9870 ha         1 XW4       0.142000
     66 H111        71.1890    53.3900    14.0950 h1         1 XW4       0.051700
     67 H112        71.4140    52.7840    15.7300 h1         1 XW4       0.051700
     68 H122        69.6990    56.4750    14.7290 h1         1 XW4       0.053700
     69 H121        70.9220    55.7350    13.7290 h1         1 XW4       0.053700
     70 H231        74.6180    58.7680    21.8310 hc         1 XW4       0.078700
     71 H251        72.4320    59.7870    21.8940 hc         1 XW4       0.065200
     72 H252        72.2790    59.2320    20.2500 hc         1 XW4       0.065200
     73 H301        69.6400    57.2650    19.0970 ha         1 XW4       0.126000
     74 H311        69.2850    58.2690    21.3410 ha         1 XW4       0.120000
     75 H331        69.5740    62.2230    19.6100 ha         1 XW4       0.120000
     76 H341        69.9450    61.2290    17.3910 ha         1 XW4       0.126000
     77 H372        74.3370    50.6820    14.3660 hc         1 XW4       0.032867
     78 H371        74.3110    51.4630    15.9540 hc         1 XW4       0.032867
     79 H373        72.7850    51.0500    15.1340 hc         1 XW4       0.032867
     80 H381        73.2100    54.8250    14.3950 hc         1 XW4       0.037700
     81 H391        74.8520    53.0940    14.1040 hc         1 XW4       0.047450
     82 H392        73.3670    52.6770    13.2860 hc         1 XW4       0.047450
     83 H402        73.0520    55.0410    16.9100 hc         1 XW4       0.047450
     84 H401        73.5680    53.3830    17.0840 hc         1 XW4       0.047450
     85 H411        75.4280    55.0390    17.4350 hc         1 XW4       0.032867
     86 H413        75.7980    53.9480    16.0880 hc         1 XW4       0.032867
     87 H412        75.2420    55.6100    15.7650 hc         1 XW4       0.032867
     88 H431        70.0190    62.7690    21.8210 h1         1 XW4       0.065700
     89 H432        68.2470    62.6610    21.7000 h1         1 XW4       0.065700
     90 H472        71.7740    61.8520    23.0870 h1         1 XW4       0.044450
     91 H471        70.9100    60.5730    23.9840 h1         1 XW4       0.044450
     92 H481        68.7640    61.6250    26.6900 h1         1 XW4       0.044450
     93 H482        67.6360    60.3100    26.3200 h1         1 XW4       0.044450
     94 H493        73.2940    60.7230    24.7030 hc         1 XW4       0.047033
     95 H492        73.0690    62.4270    25.1520 hc         1 XW4       0.047033
     96 H491        72.2100    61.1470    26.0470 hc         1 XW4       0.047033
     97 H503        66.3030    62.0370    27.3350 hc         1 XW4       0.047033
     98 H502        67.0090    63.3180    26.3470 hc         1 XW4       0.047033
     99 H501        65.9200    62.1140    25.6050 hc         1 XW4       0.047033
    100 H521        67.9500    51.1990    10.0340 h2         1 XW4       0.072200
    101 H522        66.4350    50.5560    10.7530 h2         1 XW4       0.072200
    102 H161        72.7260    59.3600    16.7420 hn         1 XW4       0.334500
    103 H141        72.2600    57.8420    13.4730 ho         1 XW4       0.445000
@<TRIPOS>BOND
     1     1     2 1   
     2     1    16 1   
     3     1    40 1   
     4     1    53 1   
     5     2     8 1   
     6     2    37 1   
     7     2    54 1   
     8     3    37 1   
     9     3    41 2   
    10     3    42 1   
    11     4     5 1   
    12     4    17 1   
    13     4    42 1   
    14     4    55 1   
    15     5    43 1   
    16     5    56 1   
    17     5    57 1   
    18     6    17 1   
    19     6    43 1   
    20     6    44 1   
    21     6    58 1   
    22     7    18 1   
    23     7    44 1   
    24     7    59 1   
    25     7    60 1   
    26     8    19 1   
    27     8    61 1   
    28     8    62 1   
    29     9    10 ar  
    30     9    14 ar  
    31     9    47 1   
    32    10    11 ar  
    33    10    45 1   
    34    11    12 ar  
    35    11    63 1   
    36    12    13 ar  
    37    12    52 1   
    38    13    14 ar  
    39    13    64 1   
    40    14    65 1   
    41    15    26 1   
    42    15    36 1   
    43    15    66 1   
    44    15    67 1   
    45    16    36 1   
    46    16    68 1   
    47    16    69 1   
    48    17    18 1   
    49    17    70 1   
    50    18    71 1   
    51    18    72 1   
    52    19    20 ar  
    53    19    24 ar  
    54    20    21 ar  
    55    20    73 1   
    56    21    22 ar  
    57    21    74 1   
    58    22    23 ar  
    59    22    46 1   
    60    23    24 ar  
    61    23    75 1   
    62    24    76 1   
    63    25    27 1   
    64    25    77 1   
    65    25    78 1   
    66    25    79 1   
    67    26    27 1   
    68    26    28 1   
    69    26    80 1   
    70    27    81 1   
    71    27    82 1   
    72    28    29 1   
    73    28    83 1   
    74    28    84 1   
    75    29    85 1   
    76    29    86 1   
    77    29    87 1   
    78    30    46 1   
    79    30    51 1   
    80    30    88 1   
    81    30    89 1   
    82    31    33 1   
    83    31    48 1   
    84    31    90 1   
    85    31    91 1   
    86    32    34 1   
    87    32    49 1   
    88    32    92 1   
    89    32    93 1   
    90    33    94 1   
    91    33    95 1   
    92    33    96 1   
    93    34    97 1   
    94    34    98 1   
    95    34    99 1   
    96    35    45 1   
    97    35    47 1   
    98    35   100 1   
    99    35   101 1   
   100    36    52 1   
   101    37   102 1   
   102    38    52 2   
   103    39    52 2   
   104    40   103 1   
   105    48    51 1   
   106    49    51 1   
   107    50    51 2   
@<TRIPOS>SUBSTRUCTURE
     1 XW4         1 TEMP              0 ****  ****    0 ROOT
