@<TRIPOS>MOLECULE
XW4
  103   107     1     0     0
SMALL
bcc


@<TRIPOS>ATOM
      1 C13         71.5120    57.6560    15.1750 c3         1 XW4       0.125100
      2 C15         71.3130    58.1060    16.6260 c3         1 XW4       0.143700
      3 C17         73.3140    58.6690    17.9440 c          1 XW4       0.756100
      4 C20         75.2310    59.5500    19.0460 c5         1 XW4       0.139100
      5 C21         76.3540    60.4580    18.5820 c5         1 XW4       0.129400
      6 C24         75.4440    61.5950    20.3400 c5         1 XW4       0.325900
      7 C26         73.1540    61.7520    20.3060 c5         1 XW4       0.131400
      8 C28         69.9810    58.8220    16.8880 c3         1 XW4      -0.038100
      9 C01         66.8920    52.5620    13.5820 ca         1 XW4       0.109100
     10 C02         67.9760    51.8440    14.0710 ca         1 XW4       0.031100
     11 C03         68.8820    52.3910    14.9410 ca         1 XW4      -0.028000
     12 C04         68.6550    53.7280    15.3040 ca         1 XW4      -0.312500
     13 C05         67.5730    54.4520    14.8260 ca         1 XW4      -0.027000
     14 C06         66.6620    53.8680    13.9420 ca         1 XW4      -0.142000
     15 C11         71.8330    54.3020    14.6500 c3         1 XW4       0.205800
     16 C12         70.6300    56.4810    14.7310 c3         1 XW4       0.182800
     17 C23         74.9100    60.1440    20.4240 c5         1 XW4      -0.146700
     18 C25         73.4430    60.3420    20.7990 c5         1 XW4      -0.099400
     19 C29         69.8330    59.2000    18.3380 ca         1 XW4      -0.087300
     20 C30         69.6470    58.2270    19.3180 ca         1 XW4      -0.103500
     21 C31         69.5230    58.5680    20.6560 ca         1 XW4      -0.152000
     22 C32         69.5700    59.9020    21.0370 ca         1 XW4       0.096100
     23 C33         69.7570    60.8880    20.0780 ca         1 XW4      -0.152000
     24 C34         69.8920    60.5300    18.7430 ca         1 XW4      -0.103500
     25 C37         74.3020    52.3450    14.3420 c3         1 XW4      -0.087600
     26 C38         73.3050    54.7160    14.6490 c3         1 XW4      -0.056700
     27 C39         74.1090    53.7450    13.7730 c3         1 XW4      -0.074900
     28 C40         73.8530    54.8550    16.0670 c3         1 XW4      -0.074900
     29 C41         75.2810    55.3770    16.1210 c3         1 XW4      -0.087600
     30 C43         70.4680    60.8360    23.0020 c3         1 XW4      -0.090800
     31 C47         68.9040    58.5930    24.9630 c3         1 XW4       0.206900
     32 C48         68.3750    63.0250    24.5640 c3         1 XW4       0.206900
     33 C49         68.5850    57.7010    26.1380 c3         1 XW4      -0.111600
     34 C50         67.6960    63.1600    23.2220 c3         1 XW4      -0.111600
     35 C52         66.9060    50.5700    12.6040 c5         1 XW4       0.326200
     36 N10         70.9650    55.2210    15.3960 n3         1 XW4      -0.738500
     37 N16         72.4030    58.9770    17.0080 ns         1 XW4      -0.565900
     38 O08         69.1310    55.6040    17.0570 o          1 XW4      -0.603300
     39 O09         70.4930    53.4950    17.1420 o          1 XW4      -0.603300
     40 O14         71.2690    58.7710    14.3500 oh         1 XW4      -0.598800
     41 O18         73.3850    57.6190    18.5520 o          1 XW4      -0.595000
     42 O19         74.1590    59.6960    18.1200 os         1 XW4      -0.430900
     43 O22         76.0080    61.7420    19.0570 os         1 XW4      -0.412600
     44 O27         74.3720    62.4580    20.5090 os         1 XW4      -0.392600
     45 O35         67.9370    50.5870    13.5820 os         1 XW4      -0.314900
     46 O36         69.3810    60.2110    22.3570 os         1 XW4      -0.324900
     47 O42         66.1610    51.7720    12.7750 os         1 XW4      -0.312900
     48 O45         69.8830    59.5610    25.3810 os         1 XW4      -0.587700
     49 O46         68.6350    61.6460    24.8860 os         1 XW4      -0.587700
     50 O51         71.1880    61.7400    25.4750 o          1 XW4      -0.779300
     51 P44         70.1020    61.0160    24.7770 p5         1 XW4       1.461300
     52 S07         69.8240    54.5270    16.3670 sy         1 XW4       1.309200
     53 H131        72.5610    57.3420    15.0980 h1         1 XW4       0.055700
     54 H151        71.3660    57.2200    17.2580 h1         1 XW4       0.097700
     55 H201        75.5430    58.5070    19.1040 h1         1 XW4       0.084700
     56 H212        77.3020    60.1110    19.0130 h1         1 XW4       0.059700
     57 H211        76.4680    60.4910    17.4970 h1         1 XW4       0.059700
     58 H241        76.1950    61.8350    21.1020 h2         1 XW4       0.081700
     59 H262        72.8570    61.7600    19.2520 h1         1 XW4       0.052200
     60 H261        72.3730    62.2560    20.8750 h1         1 XW4       0.052200
     61 H282        69.9200    59.7200    16.2700 hc         1 XW4       0.066200
     62 H281        69.1570    58.1750    16.5870 hc         1 XW4       0.066200
     63 H031        69.7110    51.8180    15.3300 ha         1 XW4       0.174000
     64 H051        67.4120    55.4750    15.1360 ha         1 XW4       0.157000
     65 H061        65.8100    54.4220    13.5720 ha         1 XW4       0.160000
     66 H111        71.4710    54.2250    13.6180 h1         1 XW4       0.051700
     67 H112        71.7540    53.3080    15.0880 h1         1 XW4       0.051700
     68 H122        69.5780    56.7360    14.8630 h1         1 XW4       0.053700
     69 H121        70.7700    56.3370    13.6550 h1         1 XW4       0.053700
     70 H231        75.4450    59.5700    21.1800 hc         1 XW4       0.078700
     71 H251        73.3500    60.3010    21.8850 hc         1 XW4       0.065200
     72 H252        72.7600    59.5980    20.3940 hc         1 XW4       0.065200
     73 H301        69.5940    57.1840    19.0330 ha         1 XW4       0.144000
     74 H311        69.3750    57.8000    21.4060 ha         1 XW4       0.138000
     75 H331        69.7840    61.9340    20.3620 ha         1 XW4       0.138000
     76 H341        70.0320    61.3090    18.0030 ha         1 XW4       0.144000
     77 H372        74.8400    51.7180    13.6310 hc         1 XW4       0.032867
     78 H371        74.8830    52.3580    15.2650 hc         1 XW4       0.032867
     79 H373        73.3550    51.8460    14.5560 hc         1 XW4       0.032867
     80 H381        73.3800    55.6940    14.1570 hc         1 XW4       0.037700
     81 H391        75.0900    54.1840    13.5750 hc         1 XW4       0.047450
     82 H392        73.6210    53.6750    12.7960 hc         1 XW4       0.047450
     83 H402        73.2110    55.5340    16.6310 hc         1 XW4       0.047450
     84 H401        73.7880    53.8940    16.5860 hc         1 XW4       0.047450
     85 H411        75.5930    55.5540    17.1510 hc         1 XW4       0.032867
     86 H413        75.9930    54.6780    15.6800 hc         1 XW4       0.032867
     87 H412        75.3720    56.3240    15.5840 hc         1 XW4       0.032867
     88 H431        71.3840    60.2400    22.9190 h1         1 XW4       0.065700
     89 H432        70.6860    61.8310    22.5960 h1         1 XW4       0.065700
     90 H472        69.3200    58.0130    24.1390 h1         1 XW4       0.044450
     91 H471        68.0010    59.0880    24.6050 h1         1 XW4       0.044450
     92 H481        69.3000    63.6060    24.5920 h1         1 XW4       0.044450
     93 H482        67.7320    63.4040    25.3590 h1         1 XW4       0.044450
     94 H493        67.8680    56.9410    25.8280 hc         1 XW4       0.047033
     95 H492        69.4740    57.1900    26.5060 hc         1 XW4       0.047033
     96 H491        68.1420    58.2670    26.9580 hc         1 XW4       0.047033
     97 H503        67.4310    64.2050    23.0610 hc         1 XW4       0.047033
     98 H502        68.3420    62.8520    22.4000 hc         1 XW4       0.047033
     99 H501        66.7790    62.5720    23.1810 hc         1 XW4       0.047033
    100 H521        67.3420    50.5460    11.6010 h2         1 XW4       0.072200
    101 H522        66.2570    49.7090    12.7640 h2         1 XW4       0.072200
    102 H161        72.4480    59.8870    16.5760 hn         1 XW4       0.334500
    103 H141        71.6170    58.5900    13.4700 ho         1 XW4       0.406000
@<TRIPOS>BOND
     1     1     2 1   
     2     1    16 1   
     3     1    40 1   
     4     1    53 1   
     5     2     8 1   
     6     2    37 1   
     7     2    54 1   
     8     3    37 1   
     9     3    41 2   
    10     3    42 1   
    11     4     5 1   
    12     4    17 1   
    13     4    42 1   
    14     4    55 1   
    15     5    43 1   
    16     5    56 1   
    17     5    57 1   
    18     6    17 1   
    19     6    43 1   
    20     6    44 1   
    21     6    58 1   
    22     7    18 1   
    23     7    44 1   
    24     7    59 1   
    25     7    60 1   
    26     8    19 1   
    27     8    61 1   
    28     8    62 1   
    29     9    10 ar  
    30     9    14 ar  
    31     9    47 1   
    32    10    11 ar  
    33    10    45 1   
    34    11    12 ar  
    35    11    63 1   
    36    12    13 ar  
    37    12    52 1   
    38    13    14 ar  
    39    13    64 1   
    40    14    65 1   
    41    15    26 1   
    42    15    36 1   
    43    15    66 1   
    44    15    67 1   
    45    16    36 1   
    46    16    68 1   
    47    16    69 1   
    48    17    18 1   
    49    17    70 1   
    50    18    71 1   
    51    18    72 1   
    52    19    20 ar  
    53    19    24 ar  
    54    20    21 ar  
    55    20    73 1   
    56    21    22 ar  
    57    21    74 1   
    58    22    23 ar  
    59    22    46 1   
    60    23    24 ar  
    61    23    75 1   
    62    24    76 1   
    63    25    27 1   
    64    25    77 1   
    65    25    78 1   
    66    25    79 1   
    67    26    27 1   
    68    26    28 1   
    69    26    80 1   
    70    27    81 1   
    71    27    82 1   
    72    28    29 1   
    73    28    83 1   
    74    28    84 1   
    75    29    85 1   
    76    29    86 1   
    77    29    87 1   
    78    30    46 1   
    79    30    51 1   
    80    30    88 1   
    81    30    89 1   
    82    31    33 1   
    83    31    48 1   
    84    31    90 1   
    85    31    91 1   
    86    32    34 1   
    87    32    49 1   
    88    32    92 1   
    89    32    93 1   
    90    33    94 1   
    91    33    95 1   
    92    33    96 1   
    93    34    97 1   
    94    34    98 1   
    95    34    99 1   
    96    35    45 1   
    97    35    47 1   
    98    35   100 1   
    99    35   101 1   
   100    36    52 1   
   101    37   102 1   
   102    38    52 2   
   103    39    52 2   
   104    40   103 1   
   105    48    51 1   
   106    49    51 1   
   107    50    51 2   
@<TRIPOS>SUBSTRUCTURE
     1 XW4         1 TEMP              0 ****  ****    0 ROOT
