@<TRIPOS>MOLECULE
XW5
   47    48     1     0     0
SMALL
abcg2


@<TRIPOS>ATOM
      1 C13         -6.9610    34.0420   -41.3130 ca         1 XW5       0.137000
      2 C14         -6.2410    33.2750   -40.4170 ca         1 XW5      -0.130000
      3 C15         -6.9210    32.3800   -39.5930 ca         1 XW5      -0.063300
      4 C16         -8.3100    32.2780   -39.7020 ca         1 XW5      -0.104000
      5 C17         -6.1760    31.5780   -38.5590 c3         1 XW5      -0.033100
      6 C12         -8.3360    33.9320   -41.4030 ca         1 XW5       0.119000
      7 C11         -9.0470    33.0450   -40.6030 ca         1 XW5      -0.076300
      8 C10        -10.5460    32.9670   -40.7570 c3         1 XW5      -0.028100
      9 C21         -5.6040    32.2960   -34.8950 c3         1 XW5       0.148600
     10 C20         -4.0420    31.2880   -36.4040 c3         1 XW5       0.148600
     11 C18         -6.0420    32.3650   -37.2500 c3         1 XW5       0.163800
     12 C02        -14.7390    32.8700   -39.7160 ca         1 XW5       0.612900
     13 C03        -15.4140    32.0110   -40.5870 ca         1 XW5      -0.265000
     14 C04        -14.6790    31.0490   -41.2670 ca         1 XW5       0.208100
     15 C05        -13.2970    30.9690   -41.0580 ca         1 XW5      -0.290000
     16 C06        -12.7180    31.8720   -40.1740 ca         1 XW5       0.418300
     17 C08        -14.6490    29.2540   -42.8460 c3         1 XW5       0.149900
     18 C09        -11.2300    31.8630   -39.9460 c3         1 XW5      -0.126700
     19 F12         -8.9900    34.7080   -42.2990 f          1 XW5      -0.167000
     20 F13         -6.3260    34.9160   -42.1250 f          1 XW5      -0.166000
     21 N01        -13.4140    32.8060   -39.5150 nb         1 XW5      -0.763000
     22 N19         -5.4460    31.5950   -36.1630 n3         1 XW5      -0.717600
     23 O07        -15.3700    30.2390   -42.1000 os         1 XW5      -0.345100
     24 H1          -5.1650    33.3830   -40.3700 ha         1 XW5       0.134000
     25 H2          -8.8250    31.5760   -39.0610 ha         1 XW5       0.124000
     26 H3          -6.7080    30.6470   -38.3530 hc         1 XW5       0.058200
     27 H4          -5.1890    31.3170   -38.9440 hc         1 XW5       0.058200
     28 H5         -10.9810    33.9320   -40.4790 hc         1 XW5       0.066700
     29 H6         -10.7830    32.8300   -41.8160 hc         1 XW5       0.066700
     30 H7          -5.2010    31.6860   -34.0850 h1         1 XW5       0.032033
     31 H8          -5.0800    33.2670   -34.8830 h1         1 XW5       0.032033
     32 H9          -6.6620    32.4770   -34.7000 h1         1 XW5       0.032033
     33 H10         -3.6450    30.7200   -35.5620 h1         1 XW5       0.032033
     34 H11         -3.9270    30.6850   -37.3030 h1         1 XW5       0.032033
     35 H12         -3.4310    32.2000   -36.5220 h1         1 XW5       0.032033
     36 H13         -5.4690    33.2900   -37.4430 h1         1 XW5       0.035200
     37 H14         -7.0400    32.6720   -36.9300 h1         1 XW5       0.035200
     38 H15        -16.4840    32.0870   -40.7320 ha         1 XW5       0.135000
     39 H16        -12.6820    30.2380   -41.5590 ha         1 XW5       0.126000
     40 H17        -15.3910    28.7410   -43.4510 h1         1 XW5       0.045033
     41 H18        -13.9050    29.7240   -43.4930 h1         1 XW5       0.045033
     42 H19        -14.1590    28.5410   -42.1800 h1         1 XW5       0.045033
     43 H20        -11.0390    32.0120   -38.8820 hc         1 XW5       0.058700
     44 H21        -10.8210    30.8910   -40.2270 hc         1 XW5       0.058700
     45 H22        -14.8650    34.5620   -38.6130 hn         1 XW5       0.466500
     46 H23        -16.3260    34.0930   -39.3270 hn         1 XW5       0.466500
     47 N02        -15.4280    33.8050   -38.9720 nv         1 XW5      -1.045900
@<TRIPOS>BOND
     1     1     2 ar  
     2     1     6 ar  
     3     1    20 1   
     4     2     3 ar  
     5     2    24 1   
     6     3     4 ar  
     7     3     5 1   
     8     4     7 ar  
     9     4    25 1   
    10     5    11 1   
    11     5    26 1   
    12     5    27 1   
    13     6     7 ar  
    14     6    19 1   
    15     7     8 1   
    16     8    18 1   
    17     8    28 1   
    18     8    29 1   
    19     9    22 1   
    20     9    30 1   
    21     9    31 1   
    22     9    32 1   
    23    10    22 1   
    24    10    33 1   
    25    10    34 1   
    26    10    35 1   
    27    11    22 1   
    28    11    36 1   
    29    11    37 1   
    30    12    13 ar  
    31    12    21 ar  
    32    12    47 1   
    33    13    14 ar  
    34    13    38 1   
    35    14    15 ar  
    36    14    23 1   
    37    15    16 ar  
    38    15    39 1   
    39    16    18 1   
    40    16    21 ar  
    41    17    23 1   
    42    17    40 1   
    43    17    41 1   
    44    17    42 1   
    45    18    43 1   
    46    18    44 1   
    47    45    47 1   
    48    46    47 1   
@<TRIPOS>SUBSTRUCTURE
     1 XW5         1 TEMP              0 ****  ****    0 ROOT
