@<TRIPOS>MOLECULE
XW5
   47    48     1     0     0
SMALL
No Charge or Current Charge


@<TRIPOS>ATOM
      1 C13         -6.8880    33.9000   -41.5440 ca         1 XW5       0.137000
      2 C14         -6.1840    33.1990   -40.5540 ca         1 XW5      -0.130000
      3 C15         -6.8780    32.3770   -39.6480 ca         1 XW5      -0.063300
      4 C16         -8.2800    32.2660   -39.7390 ca         1 XW5      -0.104000
      5 C17         -6.1190    31.6180   -38.5670 c3         1 XW5      -0.033100
      6 C12         -8.2880    33.7860   -41.6350 ca         1 XW5       0.119000
      7 C11         -9.0030    32.9680   -40.7330 ca         1 XW5      -0.076300
      8 C10        -10.5310    32.8740   -40.8680 c3         1 XW5      -0.028100
      9 C21         -5.6740    32.3920   -34.8110 c3         1 XW5       0.148600
     10 C20         -4.0590    31.2800   -36.2860 c3         1 XW5       0.148600
     11 C18         -6.0620    32.4100   -37.2400 c3         1 XW5       0.163800
     12 C02        -14.8230    32.7240   -39.5020 ca         1 XW5       0.612900
     13 C03        -15.4800    31.9490   -40.4490 ca         1 XW5      -0.265000
     14 C04        -14.7120    31.1130   -41.2590 ca         1 XW5       0.208100
     15 C05        -13.3200    31.1050   -41.0690 ca         1 XW5      -0.290000
     16 C06        -12.7650    31.9340   -40.0810 ca         1 XW5       0.418300
     17 C08        -14.6260    29.4520   -43.0760 c3         1 XW5       0.149900
     18 C09        -11.2620    31.9660   -39.8490 c3         1 XW5      -0.126700
     19 F12         -8.9510    34.4720   -42.5980 f          1 XW5      -0.167000
     20 F13         -6.2090    34.6870   -42.4100 f          1 XW5      -0.166000
     21 N01        -13.5160    32.7420   -39.3030 nb         1 XW5      -0.763000
     22 N19         -5.4760    31.6720   -36.0890 n3         1 XW5      -0.717600
     23 O07        -15.3490    30.3380   -42.2030 os         1 XW5      -0.345100
     24 H1          -5.1030    33.2990   -40.4930 ha         1 XW5       0.134000
     25 H2          -8.7920    31.6270   -39.0250 ha         1 XW5       0.124000
     26 H3          -6.5970    30.6490   -38.3820 hc         1 XW5       0.058200
     27 H4          -5.1020    31.4010   -38.9120 hc         1 XW5       0.058200
     28 H5         -10.9580    33.8820   -40.7900 hc         1 XW5       0.066700
     29 H6         -10.7770    32.5220   -41.8780 hc         1 XW5       0.066700
     30 H7          -5.3090    31.7930   -33.9660 h1         1 XW5       0.032033
     31 H8          -5.1350    33.3490   -34.8120 h1         1 XW5       0.032033
     32 H9          -6.7390    32.5980   -34.6410 h1         1 XW5       0.032033
     33 H10         -3.6790    30.7460   -35.4040 h1         1 XW5       0.032033
     34 H11         -3.9460    30.6090   -37.1470 h1         1 XW5       0.032033
     35 H12         -3.4260    32.1630   -36.4490 h1         1 XW5       0.032033
     36 H13         -5.5040    33.3410   -37.4120 h1         1 XW5       0.035200
     37 H14         -7.0920    32.7000   -36.9900 h1         1 XW5       0.035200
     38 H15        -16.5590    31.9910   -40.5550 ha         1 XW5       0.135000
     39 H16        -12.6640    30.4800   -41.6660 ha         1 XW5       0.126000
     40 H17        -15.3190    28.9310   -43.7480 h1         1 XW5       0.045033
     41 H18        -13.9100    30.0110   -43.6920 h1         1 XW5       0.045033
     42 H19        -14.0790    28.6960   -42.4990 h1         1 XW5       0.045033
     43 H20        -11.0470    32.3150   -38.8320 hc         1 XW5       0.058700
     44 H21        -10.8670    30.9460   -39.9230 hc         1 XW5       0.058700
     45 H22        -14.8380    34.2280   -38.2140 hn         1 XW5       0.466500
     46 H23        -16.3610    33.9050   -38.9560 hn         1 XW5       0.466500
     47 N02        -15.4470    33.5660   -38.6790 nv         1 XW5      -1.045900
@<TRIPOS>BOND
     1     1     2 ar  
     2     1     6 ar  
     3     1    20 1   
     4     2     3 ar  
     5     2    24 1   
     6     3     4 ar  
     7     3     5 1   
     8     4     7 ar  
     9     4    25 1   
    10     5    11 1   
    11     5    26 1   
    12     5    27 1   
    13     6     7 ar  
    14     6    19 1   
    15     7     8 1   
    16     8    18 1   
    17     8    28 1   
    18     8    29 1   
    19     9    22 1   
    20     9    30 1   
    21     9    31 1   
    22     9    32 1   
    23    10    22 1   
    24    10    33 1   
    25    10    34 1   
    26    10    35 1   
    27    11    22 1   
    28    11    36 1   
    29    11    37 1   
    30    12    13 ar  
    31    12    21 ar  
    32    12    47 1   
    33    13    14 ar  
    34    13    38 1   
    35    14    15 ar  
    36    14    23 1   
    37    15    16 ar  
    38    15    39 1   
    39    16    18 1   
    40    16    21 ar  
    41    17    23 1   
    42    17    40 1   
    43    17    41 1   
    44    17    42 1   
    45    18    43 1   
    46    18    44 1   
    47    45    47 1   
    48    46    47 1   
@<TRIPOS>SUBSTRUCTURE
     1 XW5         1 TEMP              0 ****  ****    0 ROOT
