@<TRIPOS>MOLECULE
XWA
   79    83     1     0     0
SMALL
abcg2


@<TRIPOS>ATOM
      1 C1         -10.3830   -61.6900    -6.5270 ca         1 XWA      -0.108000
      2 C2         -10.1280   -60.3870    -6.1280 ca         1 XWA      -0.111000
      3 C3          -9.3320   -62.5350    -6.8490 ca         1 XWA      -0.111000
      4 C7           1.3380   -58.6480    -6.4720 ca         1 XWA      -0.069000
      5 C8          -2.7720   -61.7670    -4.3120 ca         1 XWA      -0.017000
      6 C9          -1.8910   -62.1530    -3.3190 ca         1 XWA      -0.182000
      7 C10         -2.4360   -60.1430    -2.0860 ca         1 XWA      -0.289000
      8 C11         -2.4540   -58.8400    -6.0270 ca         1 XWA      -0.333000
      9 C12         -4.0650   -57.5600    -7.6890 ca         1 XWA       0.198900
     10 C13         -8.8220   -59.9170    -6.0320 ca         1 XWA      -0.066300
     11 C14         -8.0130   -62.0970    -6.7750 ca         1 XWA      -0.066300
     12 C15          2.1710   -59.1830    -4.2510 ca         1 XWA       0.340000
     13 C16          0.2710   -57.9340    -5.9430 ca         1 XWA       0.211000
     14 C19         -1.7180   -61.3320    -2.2040 ca         1 XWA       0.182100
     15 C20         -3.3270   -59.7730    -3.0930 ca         1 XWA       0.190100
     16 C21         -1.9960   -57.7880    -6.8240 ca         1 XWA       0.405900
     17 C22         -3.8010   -59.1550    -6.1030 ca         1 XWA       0.308900
     18 C24          4.1510   -60.5990    -3.9150 c6         1 XWA       0.215300
     19 C27          3.5360   -61.1530    -1.4170 c6         1 XWA       0.164300
     20 C30          5.8370   -61.4120    -0.7160 c3         1 XWA       0.161100
     21 C31         -0.5930   -60.9560    -0.1440 c3         1 XWA       0.147900
     22 C32         -3.8340   -57.7080    -2.0370 c3         1 XWA       0.147900
     23 C4           1.0900   -58.4450    -3.7290 ca         1 XWA      -0.180000
     24 C5           2.2760   -59.2510    -5.6510 ca         1 XWA      -0.180000
     25 C6           0.1760   -57.8240    -4.5600 ca         1 XWA      -0.069000
     26 C17         -3.4870   -60.5870    -4.2160 ca         1 XWA      -0.119000
     27 C18         -7.7750   -60.7860    -6.3540 ca         1 XWA      -0.030000
     28 C23         -5.6250   -60.6840    -5.2810 c          1 XWA       0.666100
     29 C25          2.6120   -60.1340    -2.0590 c6         1 XWA       0.215300
     30 C26          5.3250   -60.6420    -2.9380 c6         1 XWA       0.164300
     31 C28         -8.5370   -58.5140    -5.5810 c3         1 XWA      -0.046800
     32 C29         -6.8870   -63.0150    -7.1450 c3         1 XWA      -0.046800
     33 N33         -2.8180   -57.1450    -7.6710 nb         1 XWA      -0.281000
     34 N34         -4.6120   -58.5140    -6.9530 nb         1 XWA      -0.311000
     35 N35          3.0600   -59.8000    -3.4050 nh         1 XWA      -0.805400
     36 N36          4.8990   -60.6990    -1.5480 n3         1 XWA      -0.728600
     37 N38         -6.4480   -60.3020    -6.2760 ns         1 XWA      -0.174000
     38 N39         -4.3260   -60.1420    -5.2760 n          1 XWA      -0.223900
     39 O40         -5.9360   -61.4830    -4.4170 o          1 XWA      -0.607100
     40 O41         -0.8320   -61.7550    -1.2860 os         1 XWA      -0.343100
     41 O42         -4.0460   -58.6430    -3.0780 os         1 XWA      -0.327100
     42 H1         -11.4030   -62.0460    -6.5920 ha         1 XWA       0.111000
     43 H2         -10.9500   -59.7260    -5.8780 ha         1 XWA       0.110500
     44 H3          -9.5360   -63.5490    -7.1720 ha         1 XWA       0.110500
     45 H4           1.4310   -58.7580    -7.5460 ha         1 XWA       0.118000
     46 H5          -2.8950   -62.3870    -5.1920 ha         1 XWA       0.130000
     47 H6          -1.3310   -63.0750    -3.4040 ha         1 XWA       0.132000
     48 H7          -2.3090   -59.5070    -1.2220 ha         1 XWA       0.122000
     49 H8          -1.7790   -59.3690    -5.3750 ha         1 XWA       0.151000
     50 H9          -4.7320   -57.0590    -8.3830 h5         1 XWA       0.044100
     51 H10          3.8180   -61.6170    -4.1550 h1         1 XWA       0.045200
     52 H11          4.5260   -60.1700    -4.8420 h1         1 XWA       0.045200
     53 H12          3.2770   -61.2150    -0.3580 h1         1 XWA       0.040450
     54 H13          3.3660   -62.1580    -1.8360 h1         1 XWA       0.040450
     55 H14          5.5290   -61.3590     0.3290 h1         1 XWA       0.031700
     56 H15          5.9420   -62.4750    -0.9860 h1         1 XWA       0.031700
     57 H16          6.8250   -60.9550    -0.7930 h1         1 XWA       0.031700
     58 H17          0.1640   -61.4740     0.4400 h1         1 XWA       0.040700
     59 H18         -0.2120   -59.9660    -0.4110 h1         1 XWA       0.040700
     60 H19         -1.4910   -60.8390     0.4680 h1         1 XWA       0.040700
     61 H20         -4.4810   -56.8610    -2.2510 h1         1 XWA       0.042033
     62 H21         -4.1010   -58.1180    -1.0600 h1         1 XWA       0.042033
     63 H22         -2.7970   -57.3640    -2.0080 h1         1 XWA       0.042033
     64 H23          0.9630   -58.3360    -2.6610 ha         1 XWA       0.114500
     65 H24          3.0690   -59.8130    -6.1240 ha         1 XWA       0.114500
     66 H25         -0.6370   -57.2600    -4.1190 ha         1 XWA       0.118000
     67 H26          2.5950   -59.2370    -1.4320 h1         1 XWA       0.045200
     68 H27          1.5940   -60.5370    -2.0810 h1         1 XWA       0.045200
     69 H28          5.9320   -61.5160    -3.2140 h1         1 XWA       0.040450
     70 H29          5.9600   -59.7620    -3.0820 h1         1 XWA       0.040450
     71 H30         -8.0290   -57.9330    -6.3520 hc         1 XWA       0.044700
     72 H31         -9.4600   -57.9930    -5.3300 hc         1 XWA       0.044700
     73 H32         -7.8940   -58.5010    -4.6990 hc         1 XWA       0.044700
     74 H33         -6.1420   -62.5120    -7.7620 hc         1 XWA       0.044700
     75 H34         -6.3700   -63.3880    -6.2590 hc         1 XWA       0.044700
     76 H35         -7.2560   -63.8780    -7.6970 hc         1 XWA       0.044700
     77 H37         -0.4420   -56.6880    -7.4780 hn         1 XWA       0.513000
     78 H38         -6.1490   -59.5080    -6.8430 hn         1 XWA       0.207000
     79 N37         -0.7150   -57.3680    -6.7850 nu         1 XWA      -0.945900
@<TRIPOS>BOND
     1     1     2 ar  
     2     1     3 ar  
     3     1    42 1   
     4     2    10 ar  
     5     2    43 1   
     6     3    11 ar  
     7     3    44 1   
     8     4    13 ar  
     9     4    24 ar  
    10     4    45 1   
    11     5     6 ar  
    12     5    26 ar  
    13     5    46 1   
    14     6    14 ar  
    15     6    47 1   
    16     7    14 ar  
    17     7    15 ar  
    18     7    48 1   
    19     8    16 ar  
    20     8    17 ar  
    21     8    49 1   
    22     9    33 ar  
    23     9    34 ar  
    24     9    50 1   
    25    10    27 ar  
    26    10    31 1   
    27    11    27 ar  
    28    11    32 1   
    29    12    23 ar  
    30    12    24 ar  
    31    12    35 1   
    32    13    25 ar  
    33    13    79 1   
    34    14    40 1   
    35    15    26 ar  
    36    15    41 1   
    37    16    33 ar  
    38    16    79 1   
    39    17    34 ar  
    40    17    38 1   
    41    18    30 1   
    42    18    35 1   
    43    18    51 1   
    44    18    52 1   
    45    19    29 1   
    46    19    36 1   
    47    19    53 1   
    48    19    54 1   
    49    20    36 1   
    50    20    55 1   
    51    20    56 1   
    52    20    57 1   
    53    21    40 1   
    54    21    58 1   
    55    21    59 1   
    56    21    60 1   
    57    22    41 1   
    58    22    61 1   
    59    22    62 1   
    60    22    63 1   
    61    23    25 ar  
    62    23    64 1   
    63    24    65 1   
    64    25    66 1   
    65    26    38 1   
    66    27    37 1   
    67    28    37 1   
    68    28    38 1   
    69    28    39 2   
    70    29    35 1   
    71    29    67 1   
    72    29    68 1   
    73    30    36 1   
    74    30    69 1   
    75    30    70 1   
    76    31    71 1   
    77    31    72 1   
    78    31    73 1   
    79    32    74 1   
    80    32    75 1   
    81    32    76 1   
    82    37    78 1   
    83    77    79 1   
@<TRIPOS>SUBSTRUCTURE
     1 XWA         1 TEMP              0 ****  ****    0 ROOT
