@<TRIPOS>MOLECULE
XWA
   79    83     1     0     0
SMALL
No Charge or Current Charge


@<TRIPOS>ATOM
      1 C1         -10.0920   -61.8500    -8.2280 ca         1 XWA      -0.108000
      2 C2          -9.8510   -60.4740    -8.1090 ca         1 XWA      -0.111000
      3 C3          -9.1920   -62.7700    -7.6720 ca         1 XWA      -0.111000
      4 C7           1.2970   -58.5720    -6.4020 ca         1 XWA      -0.069000
      5 C8          -4.2400   -61.7660    -2.8680 ca         1 XWA      -0.017000
      6 C9          -3.5320   -62.1520    -1.7210 ca         1 XWA      -0.182000
      7 C10         -2.9570   -59.8390    -1.2810 ca         1 XWA      -0.289000
      8 C11         -2.9730   -59.0630    -5.4870 ca         1 XWA      -0.333000
      9 C12         -4.4690   -57.0990    -6.5090 ca         1 XWA       0.198900
     10 C13         -8.7160   -60.0060    -7.4220 ca         1 XWA      -0.066300
     11 C14         -8.0460   -62.3260    -6.9820 ca         1 XWA      -0.066300
     12 C15          2.3660   -59.4390    -4.3790 ca         1 XWA       0.340000
     13 C16          0.0760   -58.4240    -5.7200 ca         1 XWA       0.211000
     14 C19         -2.8840   -61.1990    -0.9300 ca         1 XWA       0.182100
     15 C20         -3.6700   -59.4350    -2.4320 ca         1 XWA       0.190100
     16 C21         -2.4000   -58.0040    -6.1910 ca         1 XWA       0.405900
     17 C22         -4.3660   -59.0620    -5.3150 ca         1 XWA       0.308900
     18 C24          4.7960   -59.1730    -3.7490 c6         1 XWA       0.215300
     19 C27          4.6790   -61.7100    -2.2990 c6         1 XWA       0.164300
     20 C30          7.1340   -61.7090    -1.9790 c3         1 XWA       0.161100
     21 C31         -1.4760   -60.7570     1.0510 c3         1 XWA       0.147900
     22 C32         -3.1550   -57.0450    -2.0110 c3         1 XWA       0.147900
     23 C4           1.1480   -59.2750    -3.6920 ca         1 XWA      -0.180000
     24 C5           2.4300   -59.0800    -5.7380 ca         1 XWA      -0.180000
     25 C6           0.0150   -58.7670    -4.3540 ca         1 XWA      -0.069000
     26 C17         -4.3110   -60.4080    -3.2520 ca         1 XWA      -0.119000
     27 C18         -7.8180   -60.9320    -6.8370 ca         1 XWA      -0.030000
     28 C23         -6.2440   -60.6570    -4.8550 c          1 XWA       0.666100
     29 C25          3.3960   -60.8470    -2.5360 c6         1 XWA       0.215300
     30 C26          6.0510   -60.0710    -3.4870 c6         1 XWA       0.164300
     31 C28         -8.4800   -58.5020    -7.3060 c3         1 XWA      -0.046800
     32 C29         -7.0700   -63.3770    -6.4560 c3         1 XWA      -0.046800
     33 N33         -3.1420   -57.0270    -6.7280 nb         1 XWA      -0.281000
     34 N34         -5.1170   -58.0550    -5.8130 nb         1 XWA      -0.311000
     35 N35          3.5150   -59.9510    -3.7320 nh         1 XWA      -0.805400
     36 N36          5.9300   -60.8930    -2.2430 n3         1 XWA      -0.728600
     37 N38         -6.6810   -60.4290    -6.1510 ns         1 XWA      -0.174000
     38 N39         -5.0060   -60.0560    -4.4880 n          1 XWA      -0.223900
     39 O40         -6.8940   -61.3400    -4.0690 o          1 XWA      -0.607100
     40 O41         -2.1970   -61.6470     0.1800 os         1 XWA      -0.343100
     41 O42         -3.8050   -58.0940    -2.7470 os         1 XWA      -0.327100
     42 H1         -10.9720   -62.2040    -8.7600 ha         1 XWA       0.111000
     43 H2         -10.5520   -59.7700    -8.5540 ha         1 XWA       0.110500
     44 H3          -9.3810   -63.8350    -7.7870 ha         1 XWA       0.110500
     45 H4           1.3680   -58.3060    -7.4530 ha         1 XWA       0.118000
     46 H5          -4.7020   -62.5380    -3.4780 ha         1 XWA       0.130000
     47 H6          -3.4760   -63.2030    -1.4500 ha         1 XWA       0.132000
     48 H7          -2.4710   -59.0990    -0.6560 ha         1 XWA       0.122000
     49 H8          -2.3660   -59.8660    -5.0850 ha         1 XWA       0.151000
     50 H9          -5.0790   -56.2990    -6.9270 h5         1 XWA       0.044100
     51 H10          4.9340   -58.6640    -4.7130 h1         1 XWA       0.045200
     52 H11          4.7590   -58.3900    -2.9760 h1         1 XWA       0.045200
     53 H12          4.5500   -62.2750    -1.3640 h1         1 XWA       0.040450
     54 H13          4.7510   -62.4510    -3.1100 h1         1 XWA       0.040450
     55 H14          7.0280   -62.2630    -1.0360 h1         1 XWA       0.031700
     56 H15          7.3020   -62.4350    -2.7870 h1         1 XWA       0.031700
     57 H16          8.0250   -61.0720    -1.8990 h1         1 XWA       0.031700
     58 H17         -0.9980   -61.3220     1.8610 h1         1 XWA       0.040700
     59 H18         -0.6910   -60.2230     0.5000 h1         1 XWA       0.040700
     60 H19         -2.1530   -60.0210     1.5040 h1         1 XWA       0.040700
     61 H20         -3.3840   -56.0700    -2.4590 h1         1 XWA       0.042033
     62 H21         -3.4980   -57.0280    -0.9690 h1         1 XWA       0.042033
     63 H22         -2.0650   -57.1760    -2.0240 h1         1 XWA       0.042033
     64 H23          1.0710   -59.5220    -2.6380 ha         1 XWA       0.114500
     65 H24          3.3570   -59.2070    -6.2880 ha         1 XWA       0.114500
     66 H25         -0.9030   -58.6230    -3.7940 ha         1 XWA       0.118000
     67 H26          3.2110   -60.2410    -1.6360 h1         1 XWA       0.045200
     68 H27          2.5410   -61.5280    -2.6550 h1         1 XWA       0.045200
     69 H28          6.1930   -60.7270    -4.3580 h1         1 XWA       0.040450
     70 H29          6.9370   -59.4220    -3.4290 h1         1 XWA       0.040450
     71 H30         -7.5540   -58.2080    -7.8140 hc         1 XWA       0.044700
     72 H31         -9.2970   -57.9250    -7.7550 hc         1 XWA       0.044700
     73 H32         -8.4020   -58.1930    -6.2560 hc         1 XWA       0.044700
     74 H33         -6.0300   -63.0330    -6.5040 hc         1 XWA       0.044700
     75 H34         -7.2960   -63.6420    -5.4170 hc         1 XWA       0.044700
     76 H35         -7.1240   -64.3000    -7.0460 hc         1 XWA       0.044700
     77 H37         -0.8060   -57.3120    -7.1960 hn         1 XWA       0.513000
     78 H38         -6.1100   -59.7900    -6.6860 hn         1 XWA       0.207000
     79 N37         -1.0360   -57.9070    -6.3980 nu         1 XWA      -0.945900
@<TRIPOS>BOND
     1     1     2 ar  
     2     1     3 ar  
     3     1    42 1   
     4     2    10 ar  
     5     2    43 1   
     6     3    11 ar  
     7     3    44 1   
     8     4    13 ar  
     9     4    24 ar  
    10     4    45 1   
    11     5     6 ar  
    12     5    26 ar  
    13     5    46 1   
    14     6    14 ar  
    15     6    47 1   
    16     7    14 ar  
    17     7    15 ar  
    18     7    48 1   
    19     8    16 ar  
    20     8    17 ar  
    21     8    49 1   
    22     9    33 ar  
    23     9    34 ar  
    24     9    50 1   
    25    10    27 ar  
    26    10    31 1   
    27    11    27 ar  
    28    11    32 1   
    29    12    23 ar  
    30    12    24 ar  
    31    12    35 1   
    32    13    25 ar  
    33    13    79 1   
    34    14    40 1   
    35    15    26 ar  
    36    15    41 1   
    37    16    33 ar  
    38    16    79 1   
    39    17    34 ar  
    40    17    38 1   
    41    18    30 1   
    42    18    35 1   
    43    18    51 1   
    44    18    52 1   
    45    19    29 1   
    46    19    36 1   
    47    19    53 1   
    48    19    54 1   
    49    20    36 1   
    50    20    55 1   
    51    20    56 1   
    52    20    57 1   
    53    21    40 1   
    54    21    58 1   
    55    21    59 1   
    56    21    60 1   
    57    22    41 1   
    58    22    61 1   
    59    22    62 1   
    60    22    63 1   
    61    23    25 ar  
    62    23    64 1   
    63    24    65 1   
    64    25    66 1   
    65    26    38 1   
    66    27    37 1   
    67    28    37 1   
    68    28    38 1   
    69    28    39 2   
    70    29    35 1   
    71    29    67 1   
    72    29    68 1   
    73    30    36 1   
    74    30    69 1   
    75    30    70 1   
    76    31    71 1   
    77    31    72 1   
    78    31    73 1   
    79    32    74 1   
    80    32    75 1   
    81    32    76 1   
    82    37    78 1   
    83    77    79 1   
@<TRIPOS>SUBSTRUCTURE
     1 XWA         1 TEMP              0 ****  ****    0 ROOT
