@<TRIPOS>MOLECULE
XWG
   67    72     1     0     0
SMALL
bcc


@<TRIPOS>ATOM
      1 CL1         -6.2790     3.5230    -1.1780 cl         1 XWG      -0.017400
      2 C25         -4.8400     2.8730    -0.5400 cc         1 XWG       0.037300
      3 C24         -3.9170     3.5170     0.2240 cd         1 XWG      -0.152000
      4 C22         -2.8440     2.6640     0.5770 cd         1 XWG      -0.103000
      5 S1          -4.4290     1.2330    -0.8440 ss         1 XWG       0.026200
      6 C20         -2.9780     1.3980     0.0750 cc         1 XWG      -0.164600
      7 C17         -2.0840     0.2810     0.2290 cc         1 XWG       0.392200
      8 C16         -2.1170    -1.0090    -0.1930 cd         1 XWG      -0.373600
      9 O10         -0.9620     0.4870     0.9250 os         1 XWG      -0.142100
     10 N9          -0.2290    -0.6630     0.9710 nc         1 XWG      -0.363300
     11 C4          -0.9090    -1.5520     0.3040 cd         1 XWG       0.351600
     12 C1          -0.3870    -2.9360     0.0860 c5         1 XWG       0.138200
     13 N3           0.5840    -3.3080     1.1080 n3         1 XWG      -0.685600
     14 C7           1.4020    -4.3710     0.5350 c5         1 XWG       0.158500
     15 C14          0.5880    -5.6660     0.7030 c5         1 XWG      -0.104400
     16 C15         -0.2880    -5.3920     1.9400 c5         1 XWG      -0.112400
     17 C8          -0.0240    -3.9070     2.2890 c5         1 XWG       0.142800
     18 C5           1.6290    -3.9040    -0.8900 c5         1 XWG      -0.142700
     19 C2           0.3680    -3.1220    -1.2660 c5         1 XWG      -0.152700
     20 C6           0.8830    -1.8220    -1.8330 c          1 XWG       0.721500
     21 O13          0.2500    -0.9710    -2.4050 o          1 XWG      -0.570500
     22 C11          2.7340    -2.8730    -0.9680 c          1 XWG       0.729500
     23 O18          3.8720    -2.9940    -0.5880 o          1 XWG      -0.571500
     24 N12          2.2320    -1.7390    -1.5650 n          1 XWG      -0.518400
     25 C19          2.9970    -0.5300    -1.7780 c3         1 XWG       0.114000
     26 C21          2.8790     0.3890    -0.5650 c3         1 XWG      -0.132400
     27 C23          3.5490     1.7180    -0.8460 c3         1 XWG       0.131800
     28 N29          3.3640     2.7260     0.2490 n4         1 XWG      -0.626800
     29 C34          3.9080     2.2340     1.5630 c3         1 XWG       0.125800
     30 C35          5.3170     1.6850     1.5470 c3         1 XWG       0.121400
     31 O36          6.2390     2.6590     1.1380 oh         1 XWG      -0.611800
     32 C31          1.8810     3.0500     0.4200 c5         1 XWG       0.132300
     33 C33          1.7960     4.5610     0.4570 c5         1 XWG      -0.101900
     34 C32          2.8640     4.9590    -0.5480 c5         1 XWG      -0.101900
     35 C30          4.0110     4.0450    -0.1680 c5         1 XWG       0.132300
     36 H24         -3.9970     4.5510     0.5220 ha         1 XWG       0.172000
     37 H22         -2.0090     2.9850     1.1830 ha         1 XWG       0.153000
     38 H16         -2.8740    -1.5110    -0.7730 ha         1 XWG       0.184000
     39 H1          -1.2540    -3.6110     0.0630 h1         1 XWG       0.068700
     40 H7           2.3410    -4.4500     1.0890 h1         1 XWG       0.101700
     41 H82          0.6810    -3.8310     3.1190 h1         1 XWG       0.067700
     42 H81         -0.9240    -3.3660     2.5830 h1         1 XWG       0.067700
     43 H5           1.8560    -4.7210    -1.5780 hc         1 XWG       0.110700
     44 H2          -0.2700    -3.6170    -1.9960 hc         1 XWG       0.108700
     45 H141        -0.0310    -5.8530    -0.1780 hc         1 XWG       0.058200
     46 H142         1.2370    -6.5320     0.8240 hc         1 XWG       0.058200
     47 H151        -1.3420    -5.5640     1.7190 hc         1 XWG       0.058700
     48 H152        -0.0310    -6.0390     2.7780 hc         1 XWG       0.058700
     49 H191         4.0340    -0.8030    -1.9680 h1         1 XWG       0.075200
     50 H192         2.6160    -0.0430    -2.6750 h1         1 XWG       0.075200
     51 H211         1.8220     0.5270    -0.3340 hc         1 XWG       0.079700
     52 H212         3.3280    -0.1100     0.2950 hc         1 XWG       0.079700
     53 H231         4.6200     1.5980    -1.0080 hx         1 XWG       0.090200
     54 H232         3.1390     2.1740    -1.7490 hx         1 XWG       0.090200
     55 H341         3.8100     3.0620     2.2660 hx         1 XWG       0.100200
     56 H342         3.2550     1.4350     1.9110 hx         1 XWG       0.100200
     57 H311         1.3590     2.6690    -0.4560 hx         1 XWG       0.105200
     58 H312         1.4990     2.5480     1.3050 hx         1 XWG       0.105200
     59 H301         4.5390     4.4430     0.6940 hx         1 XWG       0.105200
     60 H302         4.7300     3.8560    -0.9600 hx         1 XWG       0.105200
     61 H351         5.4980     1.3470     2.5750 h1         1 XWG       0.058200
     62 H352         5.3640     0.7890     0.9190 h1         1 XWG       0.058200
     63 H36          7.1100     2.2520     1.0980 ho         1 XWG       0.443000
     64 H331         0.7960     4.8990     0.1900 hc         1 XWG       0.088450
     65 H332         2.0300     4.9480     1.4510 hc         1 XWG       0.088450
     66 H321         2.5260     4.7770    -1.5700 hc         1 XWG       0.088450
     67 H322         3.1650     6.0020    -0.4730 hc         1 XWG       0.088450
@<TRIPOS>BOND
     1     1     2 1   
     2     2     3 2   
     3     2     5 1   
     4     3     4 1   
     5     3    36 1   
     6     4     6 2   
     7     4    37 1   
     8     5     6 1   
     9     6     7 1   
    10     7     8 2   
    11     7     9 1   
    12     8    11 1   
    13     8    38 1   
    14     9    10 1   
    15    10    11 2   
    16    11    12 1   
    17    12    13 1   
    18    12    19 1   
    19    12    39 1   
    20    13    14 1   
    21    13    17 1   
    22    14    15 1   
    23    14    18 1   
    24    14    40 1   
    25    15    16 1   
    26    15    45 1   
    27    15    46 1   
    28    16    17 1   
    29    16    47 1   
    30    16    48 1   
    31    17    41 1   
    32    17    42 1   
    33    18    19 1   
    34    18    22 1   
    35    18    43 1   
    36    19    20 1   
    37    19    44 1   
    38    20    21 2   
    39    20    24 1   
    40    22    23 2   
    41    22    24 1   
    42    24    25 1   
    43    25    26 1   
    44    25    49 1   
    45    25    50 1   
    46    26    27 1   
    47    26    51 1   
    48    26    52 1   
    49    27    28 1   
    50    27    53 1   
    51    27    54 1   
    52    28    29 1   
    53    28    32 1   
    54    28    35 1   
    55    29    30 1   
    56    29    55 1   
    57    29    56 1   
    58    30    31 1   
    59    30    61 1   
    60    30    62 1   
    61    31    63 1   
    62    32    33 1   
    63    32    57 1   
    64    32    58 1   
    65    33    34 1   
    66    33    64 1   
    67    33    65 1   
    68    34    35 1   
    69    34    66 1   
    70    34    67 1   
    71    35    59 1   
    72    35    60 1   
@<TRIPOS>SUBSTRUCTURE
     1 XWG         1 TEMP              0 ****  ****    0 ROOT
