@<TRIPOS>MOLECULE
XWG
   67    72     1     0     0
SMALL
No Charge or Current Charge


@<TRIPOS>ATOM
      1 Cl1         -7.7210     2.2830    -1.2130 cl         1 XWG      -0.109000
      2 C25         -6.1160     1.9210    -0.6570 cc         1 XWG      -0.016000
      3 C24         -5.2780     2.7950    -0.0100 cd         1 XWG      -0.134000
      4 C22         -4.0210     2.2190     0.3260 cd         1 XWG      -0.085000
      5 S1          -5.3760     0.3370    -0.8770 ss         1 XWG       0.316000
      6 C20         -3.9150     0.9060    -0.0700 cc         1 XWG      -0.309500
      7 C17         -2.7470     0.1090     0.1540 cc         1 XWG       0.282500
      8 C16         -2.5630    -1.1840    -0.2050 cd         1 XWG      -0.225000
      9 O10         -1.6230     0.5760     0.7820 os         1 XWG      -0.097700
     10 N9          -0.6610    -0.5010     0.8190 nc         1 XWG      -0.363300
     11 C4          -1.2630    -1.5280     0.2190 cd         1 XWG       0.286300
     12 C1          -0.5820    -2.8970     0.0190 c5         1 XWG       0.138200
     13 N3           0.4930    -3.0940     1.0470 n3         1 XWG      -0.685600
     14 C7           1.3510    -4.1770     0.5560 c5         1 XWG       0.158500
     15 C14          0.4830    -5.4620     0.7240 c5         1 XWG      -0.104400
     16 C15         -0.3310    -5.1500     2.0220 c5         1 XWG      -0.112400
     17 C8          -0.0740    -3.6320     2.3120 c5         1 XWG       0.142800
     18 C5           1.5040    -3.8340    -0.9530 c5         1 XWG      -0.142700
     19 C2           0.2110    -3.0100    -1.3320 c5         1 XWG      -0.152700
     20 C6           0.7350    -1.6400    -1.7860 c          1 XWG       0.579000
     21 O13          0.1600    -0.7810    -2.4400 o          1 XWG      -0.495000
     22 C11          2.6640    -2.8350    -1.0700 c          1 XWG       0.587000
     23 O18          3.8640    -3.0440    -0.9660 o          1 XWG      -0.496000
     24 N12          2.0900    -1.6400    -1.4880 n          1 XWG      -0.384400
     25 C19          2.9240    -0.4510    -1.7650 c3         1 XWG       0.114000
     26 C21          2.9910     0.4830    -0.5440 c3         1 XWG      -0.132400
     27 C23          3.8120     1.7570    -0.8160 c3         1 XWG       0.103600
     28 N29          3.8750     2.7940     0.3160 n4         1 XWG      -0.514000
     29 C34          4.5010     2.1830     1.5930 c3         1 XWG       0.097600
     30 C35          5.9270     1.5800     1.5110 c3         1 XWG       0.144600
     31 O36          6.9170     2.6180     1.4090 oh         1 XWG      -0.674000
     32 C31          2.4480     3.3690     0.6210 c5         1 XWG       0.104100
     33 C33          2.6470     4.8970     0.7050 c5         1 XWG      -0.101900
     34 C32          3.5960     5.1030    -0.4920 c5         1 XWG      -0.101900
     35 C30          4.6760     4.0590    -0.1410 c5         1 XWG       0.104100
     36 H24         -5.5490     3.8210     0.2200 ha         1 XWG       0.154000
     37 H22         -3.2340     2.7640     0.8410 ha         1 XWG       0.135000
     38 H16         -3.2660    -1.8250    -0.7200 ha         1 XWG       0.166000
     39 H1          -1.3630    -3.6700     0.0630 h1         1 XWG       0.068700
     40 H7           2.3060    -4.2540     1.0990 h1         1 XWG       0.101700
     41 H82          0.6560    -3.5270     3.1270 h1         1 XWG       0.067700
     42 H81         -0.9860    -3.1070     2.6300 h1         1 XWG       0.067700
     43 H5           1.7210    -4.7140    -1.5680 hc         1 XWG       0.110700
     44 H2          -0.4150    -3.4380    -2.1220 hc         1 XWG       0.108700
     45 H141        -0.1830    -5.6460    -0.1270 hc         1 XWG       0.058200
     46 H142         1.1060    -6.3570     0.8320 hc         1 XWG       0.058200
     47 H151        -1.3980    -5.3520     1.8750 hc         1 XWG       0.058700
     48 H152        -0.0070    -5.7690     2.8660 hc         1 XWG       0.058700
     49 H191         3.9390    -0.7640    -2.0440 h1         1 XWG       0.075200
     50 H192         2.5120     0.0980    -2.6220 h1         1 XWG       0.075200
     51 H211         1.9720     0.7610    -0.2540 hc         1 XWG       0.079700
     52 H212         3.4260    -0.0660     0.2990 hc         1 XWG       0.079700
     53 H231         4.8380     1.4730    -1.0610 hx         1 XWG       0.090200
     54 H232         3.3920     2.2620    -1.6890 hx         1 XWG       0.090200
     55 H341         4.5020     2.9570     2.3640 hx         1 XWG       0.100200
     56 H342         3.8260     1.3930     1.9270 hx         1 XWG       0.100200
     57 H311         1.7930     3.0930    -0.2090 hx         1 XWG       0.105200
     58 H312         2.0520     2.9150     1.5320 hx         1 XWG       0.105200
     59 H301         5.2950     4.3820     0.7000 hx         1 XWG       0.105200
     60 H302         5.3410     3.7970    -0.9680 hx         1 XWG       0.105200
     61 H351         6.0980     0.9890     2.4210 h1         1 XWG       0.058200
     62 H352         5.9870     0.8920     0.6580 h1         1 XWG       0.058200
     63 H36          7.7990     2.1790     1.3880 ho         1 XWG       0.482000
     64 H331         1.7040     5.4460     0.6040 hc         1 XWG       0.088450
     65 H332         3.1080     5.1940     1.6560 hc         1 XWG       0.088450
     66 H321         3.1120     4.8810    -1.4500 hc         1 XWG       0.088450
     67 H322         4.0020     6.1190    -0.5480 hc         1 XWG       0.088450
@<TRIPOS>BOND
     1     1     2 1   
     2     2     3 2   
     3     2     5 1   
     4     3     4 1   
     5     3    36 1   
     6     4     6 2   
     7     4    37 1   
     8     5     6 1   
     9     6     7 1   
    10     7     8 2   
    11     7     9 1   
    12     8    11 1   
    13     8    38 1   
    14     9    10 1   
    15    10    11 2   
    16    11    12 1   
    17    12    13 1   
    18    12    19 1   
    19    12    39 1   
    20    13    14 1   
    21    13    17 1   
    22    14    15 1   
    23    14    18 1   
    24    14    40 1   
    25    15    16 1   
    26    15    45 1   
    27    15    46 1   
    28    16    17 1   
    29    16    47 1   
    30    16    48 1   
    31    17    41 1   
    32    17    42 1   
    33    18    19 1   
    34    18    22 1   
    35    18    43 1   
    36    19    20 1   
    37    19    44 1   
    38    20    21 2   
    39    20    24 1   
    40    22    23 2   
    41    22    24 1   
    42    24    25 1   
    43    25    26 1   
    44    25    49 1   
    45    25    50 1   
    46    26    27 1   
    47    26    51 1   
    48    26    52 1   
    49    27    28 1   
    50    27    53 1   
    51    27    54 1   
    52    28    29 1   
    53    28    32 1   
    54    28    35 1   
    55    29    30 1   
    56    29    55 1   
    57    29    56 1   
    58    30    31 1   
    59    30    61 1   
    60    30    62 1   
    61    31    63 1   
    62    32    33 1   
    63    32    57 1   
    64    32    58 1   
    65    33    34 1   
    66    33    64 1   
    67    33    65 1   
    68    34    35 1   
    69    34    66 1   
    70    34    67 1   
    71    35    59 1   
    72    35    60 1   
@<TRIPOS>SUBSTRUCTURE
     1 XWG         1 TEMP              0 ****  ****    0 ROOT
