@<TRIPOS>MOLECULE
XWH
   21    22     1     0     0
SMALL
abcg2


@<TRIPOS>ATOM
      1 C10        -16.3180    -5.3720   -25.3510 ca         1 XWH       0.342400
      2 C13        -19.0090    -5.4690   -25.5840 ca         1 XWH      -0.153500
      3 C05        -20.5130    -9.5620   -25.1690 cc         1 XWH       0.127300
      4 C06        -20.3550    -8.2340   -25.5790 cc         1 XWH      -0.153000
      5 C07        -19.0820    -7.9020   -25.1610 cd         1 XWH      -0.106000
      6 C08        -18.3370    -6.6570   -25.3060 ca         1 XWH       0.018000
      7 C09        -16.9500    -6.5950   -25.1900 ca         1 XWH      -0.153500
      8 C12        -18.2790    -4.3020   -25.7320 ca         1 XWH       0.342400
      9 F01        -21.6270   -11.0390   -26.6070 f          1 XWH      -0.106667
     10 F03        -22.8260    -9.7490   -25.3770 f          1 XWH      -0.106667
     11 F04        -21.7740   -11.4140   -24.4930 f          1 XWH      -0.106667
     12 N11        -16.9570    -4.2410   -25.6190 nb         1 XWH      -0.654000
     13 N14        -18.5960    -9.0110   -24.5610 na         1 XWH       0.024800
     14 N15        -19.4410   -10.0190   -24.5500 nd         1 XWH      -0.454800
     15 H1         -15.2390    -5.3120   -25.2640 h4         1 XWH       0.025100
     16 H2         -20.0870    -5.4390   -25.6750 ha         1 XWH       0.125000
     17 H3         -21.0540    -7.6130   -26.1140 ha         1 XWH       0.162000
     18 H4         -16.3480    -7.4730   -24.9940 ha         1 XWH       0.125000
     19 H5         -18.7920    -3.3720   -25.9490 h4         1 XWH       0.025100
     20 H6         -17.7030    -9.1210   -24.1020 hn         1 XWH       0.382000
     21 C02        -21.6850   -10.4460   -25.4060 c3         1 XWH       0.294700
@<TRIPOS>BOND
     1     1     7 ar  
     2     1    12 ar  
     3     1    15 1   
     4     2     6 ar  
     5     2     8 ar  
     6     2    16 1   
     7     3     4 1   
     8     3    14 2   
     9     3    21 1   
    10     4     5 2   
    11     4    17 1   
    12     5     6 1   
    13     5    13 1   
    14     6     7 ar  
    15     7    18 1   
    16     8    12 ar  
    17     8    19 1   
    18     9    21 1   
    19    10    21 1   
    20    11    21 1   
    21    13    14 1   
    22    13    20 1   
@<TRIPOS>SUBSTRUCTURE
     1 XWH         1 TEMP              0 ****  ****    0 ROOT
