@<TRIPOS>MOLECULE
XWH
   21    22     1     0     0
SMALL
No Charge or Current Charge


@<TRIPOS>ATOM
      1 C10        -16.3500    -5.2470   -25.1400 ca         1 XWH       0.342400
      2 C13        -18.9840    -5.5480   -25.8480 ca         1 XWH      -0.153500
      3 C05        -20.4580    -9.6530   -25.1420 cc         1 XWH       0.127300
      4 C06        -20.2820    -8.2980   -25.4680 cc         1 XWH      -0.153000
      5 C07        -18.9920    -7.9690   -25.1720 cd         1 XWH      -0.106000
      6 C08        -18.3110    -6.6710   -25.3310 ca         1 XWH       0.018000
      7 C09        -16.9600    -6.5020   -24.9720 ca         1 XWH      -0.153500
      8 C12        -18.2990    -4.3290   -25.9830 ca         1 XWH       0.342400
      9 F01        -22.1700   -10.3450   -26.6390 f          1 XWH      -0.106667
     10 F03        -22.7750    -9.7800   -24.6260 f          1 XWH      -0.106667
     11 F04        -21.7430   -11.6660   -24.9630 f          1 XWH      -0.106667
     12 N11        -17.0010    -4.1710   -25.6370 nb         1 XWH      -0.654000
     13 N14        -18.4430    -9.1610   -24.6740 na         1 XWH       0.024800
     14 N15        -19.3630   -10.2120   -24.6560 nd         1 XWH      -0.454800
     15 H1         -15.3060    -5.0980   -24.8680 h4         1 XWH       0.025100
     16 H2         -20.0260    -5.6020   -26.1450 ha         1 XWH       0.125000
     17 H3         -21.0530    -7.6550   -25.8800 ha         1 XWH       0.162000
     18 H4         -16.3740    -7.3200   -24.5670 ha         1 XWH       0.125000
     19 H5         -18.8060    -3.4510   -26.3810 h4         1 XWH       0.025100
     20 H6         -17.4880    -9.2950   -24.3490 hn         1 XWH       0.382000
     21 C02        -21.7870   -10.3660   -25.3410 c3         1 XWH       0.294700
@<TRIPOS>BOND
     1     1     7 ar  
     2     1    12 ar  
     3     1    15 1   
     4     2     6 ar  
     5     2     8 ar  
     6     2    16 1   
     7     3     4 1   
     8     3    14 2   
     9     3    21 1   
    10     4     5 2   
    11     4    17 1   
    12     5     6 1   
    13     5    13 1   
    14     6     7 ar  
    15     7    18 1   
    16     8    12 ar  
    17     8    19 1   
    18     9    21 1   
    19    10    21 1   
    20    11    21 1   
    21    13    14 1   
    22    13    20 1   
@<TRIPOS>SUBSTRUCTURE
     1 XWH         1 TEMP              0 ****  ****    0 ROOT
