@<TRIPOS>MOLECULE
XWJ
   57    60     1     0     0
SMALL
No Charge or Current Charge


@<TRIPOS>ATOM
      1 C11          8.9570    -4.4680    40.6600 c3         1 XWJ      -0.040800
      2 C18         12.9450    -2.1040    30.8200 ca         1 XWJ      -0.018200
      3 N20         12.7340    -3.6980    29.1760 nc         1 XWJ      -0.514100
      4 C21         12.2290    -4.1570    30.3330 cd         1 XWJ       0.430500
      5 C22         12.3440    -3.1760    31.3930 ca         1 XWJ      -0.238900
      6 C24         11.6820    -5.5170    30.5050 ca         1 XWJ      -0.153900
      7 C25         12.1560    -6.3020    31.5780 ca         1 XWJ      -0.052000
      8 C29         10.7430    -6.0780    29.6010 ca         1 XWJ       0.002700
      9 C30         10.1720    -5.2810    28.4310 c3         1 XWJ      -0.049800
     10 C02          9.2720    -7.3750    39.2110 c          1 XWJ       0.603100
     11 C05          9.5760    -5.0530    38.2190 ca         1 XWJ      -0.016000
     12 C06         10.0930    -4.6510    36.9740 ca         1 XWJ      -0.190000
     13 C07         10.6620    -3.3780    36.7920 ca         1 XWJ      -0.010000
     14 C08         10.6970    -2.4890    37.8850 ca         1 XWJ      -0.130000
     15 C09         10.1590    -2.8700    39.1250 ca         1 XWJ      -0.081000
     16 C10          9.5860    -4.1440    39.3070 ca         1 XWJ      -0.082300
     17 C13         11.7880    -1.9380    34.9760 c          1 XWJ       0.626700
     18 C15         12.1880    -2.0220    33.5150 ca         1 XWJ      -0.197600
     19 C16         12.8330    -0.9070    32.9050 ca         1 XWJ      -0.029000
     20 C17         13.2130    -0.9390    31.5460 ca         1 XWJ      -0.139000
     21 C23         11.9340    -3.1830    32.7330 ca         1 XWJ      -0.002000
     22 C26         11.6940    -7.6140    31.7640 ca         1 XWJ      -0.190000
     23 C27         10.7630    -8.1610    30.8760 ca         1 XWJ       0.308000
     24 C28         10.2910    -7.3980    29.8020 ca         1 XWJ      -0.191000
     25 N04          9.0260    -6.3570    38.3040 ns         1 XWJ      -0.171000
     26 N12         11.1710    -3.0690    35.5000 ns         1 XWJ      -0.143000
     27 N19         13.1790    -2.4120    29.4920 na         1 XWJ       0.079600
     28 N31         10.3160    -9.4400    31.0560 nv         1 XWJ      -1.077000
     29 O03         10.1150    -7.3090    40.0980 o          1 XWJ      -0.581100
     30 O14         12.0070    -0.9250    35.6320 o          1 XWJ      -0.582100
     31 H1           9.6810    -4.9490    41.3270 hc         1 XWJ       0.045700
     32 H2           8.6050    -3.5590    41.1620 hc         1 XWJ       0.045700
     33 H3           8.0880    -5.1290    40.5610 hc         1 XWJ       0.045700
     34 H4          12.8980    -5.8980    32.2640 ha         1 XWJ       0.115000
     35 H5           9.9080    -4.2600    28.7330 hc         1 XWJ       0.047033
     36 H6          10.8950    -5.2170    27.6100 hc         1 XWJ       0.047033
     37 H7           9.2610    -5.7420    28.0320 hc         1 XWJ       0.047033
     38 H8           8.6460    -9.4160    39.7260 hc         1 XWJ       0.061033
     39 H9           7.3600    -8.3400    39.0310 hc         1 XWJ       0.061033
     40 H10          8.5390    -8.9700    37.9710 hc         1 XWJ       0.061033
     41 H11         10.0640    -5.3470    36.1380 ha         1 XWJ       0.108000
     42 H12         11.1240    -1.4960    37.7970 ha         1 XWJ       0.150000
     43 H13         10.1780    -2.1620    39.9510 ha         1 XWJ       0.116000
     44 H14         13.0360    -0.0070    33.4820 ha         1 XWJ       0.135000
     45 H15         13.6950    -0.0810    31.0830 ha         1 XWJ       0.125000
     46 H16         11.4320    -4.0590    33.1370 ha         1 XWJ       0.121000
     47 H17         12.0690    -8.2040    32.5960 ha         1 XWJ       0.116000
     48 H18          9.5660    -7.8300    29.1180 ha         1 XWJ       0.111000
     49 H19         13.8830    -1.9940    27.5440 h1         1 XWJ       0.055367
     50 H20         13.2150    -0.5920    28.4310 h1         1 XWJ       0.055367
     51 H21         14.8220    -1.2470    28.8710 h1         1 XWJ       0.055367
     52 H22          8.3540    -6.5800    37.5820 hn         1 XWJ       0.150000
     53 H23         11.0620    -3.8230    34.8370 hn         1 XWJ       0.152000
     54 H24         10.7720   -10.0420    31.7390 hn         1 XWJ       0.452500
     55 H25          9.7620    -9.8900    30.3300 hn         1 XWJ       0.452500
     56 C32         13.8140    -1.5050    28.5230 c3         1 XWJ       0.081900
     57 C01          8.4190    -8.6230    39.0030 c3         1 XWJ      -0.180100
@<TRIPOS>BOND
     1     1    16 1   
     2     1    31 1   
     3     1    32 1   
     4     1    33 1   
     5     2     5 ar  
     6     2    20 ar  
     7     2    27 1   
     8     3     4 2   
     9     3    27 1   
    10     4     5 1   
    11     4     6 1   
    12     5    21 ar  
    13     6     7 ar  
    14     6     8 ar  
    15     7    22 ar  
    16     7    34 1   
    17     8     9 1   
    18     8    24 ar  
    19     9    35 1   
    20     9    36 1   
    21     9    37 1   
    22    10    25 1   
    23    10    29 2   
    24    10    57 1   
    25    11    12 ar  
    26    11    16 ar  
    27    11    25 1   
    28    12    13 ar  
    29    12    41 1   
    30    13    14 ar  
    31    13    26 1   
    32    14    15 ar  
    33    14    42 1   
    34    15    16 ar  
    35    15    43 1   
    36    17    18 1   
    37    17    26 1   
    38    17    30 2   
    39    18    19 ar  
    40    18    21 ar  
    41    19    20 ar  
    42    19    44 1   
    43    20    45 1   
    44    21    46 1   
    45    22    23 ar  
    46    22    47 1   
    47    23    24 ar  
    48    23    28 1   
    49    24    48 1   
    50    25    52 1   
    51    26    53 1   
    52    27    56 1   
    53    28    54 1   
    54    28    55 1   
    55    38    57 1   
    56    39    57 1   
    57    40    57 1   
    58    49    56 1   
    59    50    56 1   
    60    51    56 1   
@<TRIPOS>SUBSTRUCTURE
     1 XWJ         1 TEMP              0 ****  ****    0 ROOT
