@<TRIPOS>MOLECULE
XWJ
   57    60     1     0     0
SMALL
bcc


@<TRIPOS>ATOM
      1 C11          9.2360    -4.3600    40.8430 c3         1 XWJ      -0.040800
      2 C18         12.5720    -2.0460    30.8880 ca         1 XWJ      -0.018200
      3 N20         12.4850    -3.5200    29.2260 nc         1 XWJ      -0.514100
      4 C21         12.2490    -4.1920    30.3280 cd         1 XWJ       0.430500
      5 C22         12.2830    -3.3020    31.4470 ca         1 XWJ      -0.238900
      6 C24         12.0060    -5.6380    30.3430 ca         1 XWJ      -0.153900
      7 C25         12.6400    -6.4100    31.3190 ca         1 XWJ      -0.070000
      8 C29         11.1590    -6.2840    29.4260 ca         1 XWJ       0.002700
      9 C30         10.4140    -5.5390    28.3550 c3         1 XWJ      -0.049800
     10 C02          8.5400    -6.9870    39.1030 c          1 XWJ       0.670100
     11 C05          9.3350    -4.8070    38.3410 ca         1 XWJ       0.076600
     12 C06          9.8140    -4.4940    37.0770 ca         1 XWJ      -0.208000
     13 C07         10.7530    -3.4820    36.8850 ca         1 XWJ       0.082600
     14 C08         11.2310    -2.8010    38.0040 ca         1 XWJ      -0.148000
     15 C09         10.7370    -3.1250    39.2580 ca         1 XWJ      -0.099000
     16 C10          9.7770    -4.1090    39.4690 ca         1 XWJ      -0.082300
     17 C13         12.0340    -2.3200    35.0960 c          1 XWJ       0.693700
     18 C15         12.1960    -2.2920    33.6130 ca         1 XWJ      -0.197600
     19 C16         12.5320    -1.0470    33.0300 ca         1 XWJ      -0.047000
     20 C17         12.7080    -0.8980    31.6780 ca         1 XWJ      -0.157000
     21 C23         12.0760    -3.4210    32.8240 ca         1 XWJ      -0.020000
     22 C26         12.4650    -7.7780    31.4040 ca         1 XWJ      -0.208000
     23 C27         11.6300    -8.4320    30.4940 ca         1 XWJ       0.169600
     24 C28         10.9880    -7.6580    29.5200 ca         1 XWJ      -0.209000
     25 N04          8.3520    -5.8160    38.4440 ns         1 XWJ      -0.497100
     26 N12         11.1360    -3.2250    35.5640 ns         1 XWJ      -0.469100
     27 N19         12.6650    -2.2350    29.5550 na         1 XWJ       0.108900
     28 N31         11.4800    -9.7990    30.5180 nv         1 XWJ      -0.828200
     29 O03          9.5700    -7.2500    39.6980 o          1 XWJ      -0.581100
     30 O14         12.6610    -1.5550    35.8100 o          1 XWJ      -0.582100
     31 H1           9.7480    -5.1890    41.3330 hc         1 XWJ       0.045700
     32 H2           9.3610    -3.4780    41.4700 hc         1 XWJ       0.045700
     33 H3           8.1740    -4.6070    40.8180 hc         1 XWJ       0.045700
     34 H4          13.3090    -5.9310    32.0240 ha         1 XWJ       0.133000
     35 H5           9.9280    -4.6440    28.7440 hc         1 XWJ       0.047033
     36 H6          11.0790    -5.2130    27.5550 hc         1 XWJ       0.047033
     37 H7           9.6470    -6.1730    27.9110 hc         1 XWJ       0.047033
     38 H8           7.7120    -8.9500    38.9420 hc         1 XWJ       0.061033
     39 H9           6.8530    -7.8820    40.0420 hc         1 XWJ       0.061033
     40 H10          6.6330    -7.6970    38.3040 hc         1 XWJ       0.061033
     41 H11          9.4430    -5.0530    36.2250 ha         1 XWJ       0.126000
     42 H12         11.9620    -2.0150    37.9120 ha         1 XWJ       0.168000
     43 H13         11.1020    -2.5660    40.1110 ha         1 XWJ       0.134000
     44 H14         12.6380    -0.1820    33.6700 ha         1 XWJ       0.153000
     45 H15         12.9440     0.0680    31.2520 ha         1 XWJ       0.143000
     46 H16         11.8540    -4.3920    33.2510 ha         1 XWJ       0.139000
     47 H17         12.9800    -8.3420    32.1730 ha         1 XWJ       0.134000
     48 H18         10.3260    -8.1510    28.8160 ha         1 XWJ       0.129000
     49 H19         12.5300    -1.5180    27.6180 h1         1 XWJ       0.055367
     50 H20         12.7260    -0.2800    28.8600 h1         1 XWJ       0.055367
     51 H21         14.1130    -1.2700    28.3780 h1         1 XWJ       0.055367
     52 H22          7.5440    -5.7310    37.8470 hn         1 XWJ       0.316500
     53 H23         10.6160    -3.7430    34.8720 hn         1 XWJ       0.318500
     54 H24         11.6780   -10.2520    31.3960 hn         1 XWJ       0.397300
     55 H25         10.6510   -10.1640    30.0780 hn         1 XWJ       0.397300
     56 C32         13.0360    -1.2740    28.5480 c3         1 XWJ       0.052600
     57 C01          7.3630    -7.9280    39.0790 c3         1 XWJ      -0.180100
@<TRIPOS>BOND
     1     1    16 1   
     2     1    31 1   
     3     1    32 1   
     4     1    33 1   
     5     2     5 ar  
     6     2    20 ar  
     7     2    27 1   
     8     3     4 2   
     9     3    27 1   
    10     4     5 1   
    11     4     6 1   
    12     5    21 ar  
    13     6     7 ar  
    14     6     8 ar  
    15     7    22 ar  
    16     7    34 1   
    17     8     9 1   
    18     8    24 ar  
    19     9    35 1   
    20     9    36 1   
    21     9    37 1   
    22    10    25 1   
    23    10    29 2   
    24    10    57 1   
    25    11    12 ar  
    26    11    16 ar  
    27    11    25 1   
    28    12    13 ar  
    29    12    41 1   
    30    13    14 ar  
    31    13    26 1   
    32    14    15 ar  
    33    14    42 1   
    34    15    16 ar  
    35    15    43 1   
    36    17    18 1   
    37    17    26 1   
    38    17    30 2   
    39    18    19 ar  
    40    18    21 ar  
    41    19    20 ar  
    42    19    44 1   
    43    20    45 1   
    44    21    46 1   
    45    22    23 ar  
    46    22    47 1   
    47    23    24 ar  
    48    23    28 1   
    49    24    48 1   
    50    25    52 1   
    51    26    53 1   
    52    27    56 1   
    53    28    54 1   
    54    28    55 1   
    55    38    57 1   
    56    39    57 1   
    57    40    57 1   
    58    49    56 1   
    59    50    56 1   
    60    51    56 1   
@<TRIPOS>SUBSTRUCTURE
     1 XWJ         1 TEMP              0 ****  ****    0 ROOT
