@<TRIPOS>MOLECULE
XWO
   70    73     1     0     0
SMALL
No Charge or Current Charge


@<TRIPOS>ATOM
      1 C1          51.1960    29.2140     1.8950 c3         1 XWO      -0.103100
      2 C6          55.5070    29.9580    -1.4910 cc         1 XWO      -0.158000
      3 C7          55.8170    31.0540    -0.7370 cd         1 XWO      -0.156500
      4 N10         57.6350    30.5310    -2.0870 nd         1 XWO      -0.527800
      5 C11         56.6370    29.6930    -2.2840 cc         1 XWO       0.254400
      6 C23         49.6980    33.2300     0.4580 ca         1 XWO      -0.109600
      7 C27         52.6700    36.9800    -0.7570 c3         1 XWO       0.124600
      8 C31         55.3120    35.3400     0.0920 c3         1 XWO       0.164600
      9 C3          51.9400    29.0540    -0.5210 ca         1 XWO      -0.093300
     10 C5          54.2050    29.2780    -1.4350 ca         1 XWO       0.023500
     11 C2          50.8470    29.5410     0.4280 c3         1 XWO       0.164000
     12 C4          53.1950    29.6940    -0.5440 ca         1 XWO      -0.103000
     13 C12         53.9420    28.1910    -2.2930 ca         1 XWO      -0.098000
     14 C13         52.6970    27.5280    -2.2820 ca         1 XWO       0.023500
     15 C14         52.4660    26.4000    -3.1950 cc         1 XWO      -0.158000
     16 C15         51.2930    25.7030    -3.2510 cd         1 XWO      -0.156500
     17 C24         50.9420    33.7800     0.0410 ca         1 XWO      -0.131000
     18 C19         53.3190    25.8140    -4.1480 cc         1 XWO       0.254400
     19 C20         51.6980    27.9750    -1.3900 ca         1 XWO      -0.103000
     20 C25         51.1040    35.1510    -0.1930 ca         1 XWO       0.133100
     21 C28         54.1470    37.1200    -1.2310 c3         1 XWO       0.181800
     22 C30         55.2540    37.6570     0.9410 c3         1 XWO       0.164600
     23 C32         50.0160    36.0210    -0.0110 ca         1 XWO      -0.178000
     24 C33         48.7780    35.5060     0.3980 ca         1 XWO      -0.081000
     25 C34         48.6000    34.1260     0.6330 ca         1 XWO      -0.060300
     26 C35         47.2060    33.6590     1.0510 c3         1 XWO      -0.045800
     27 N16         51.5080    24.7350    -4.2380 na         1 XWO       0.133300
     28 N18         52.7770    24.8050    -4.7990 nd         1 XWO      -0.527800
     29 N21         50.6430    30.9740     0.2270 ns         1 XWO      -0.505900
     30 N29         55.2260    36.7790    -0.2500 n3         1 XWO      -0.738600
     31 N8          57.1220    31.3830    -1.1170 na         1 XWO       0.133300
     32 O26         52.3490    35.5850    -0.5960 os         1 XWO      -0.355100
     33 O36         48.6790    31.1940     1.3240 o          1 XWO      -0.583100
     34 H1B         50.3800    29.4980     2.5680 hc         1 XWO       0.044700
     35 H1A         51.3710    28.1380     2.0130 hc         1 XWO       0.044700
     36 H1C         52.1020    29.7450     2.2110 hc         1 XWO       0.044700
     37 H7          55.2600    31.6180     0.0020 h4         1 XWO       0.155500
     38 H11         56.7610    28.9030    -3.0130 h4         1 XWO       0.038100
     39 H27B        52.0200    37.4300    -1.5180 h1         1 XWO       0.039200
     40 H27A        52.5240    37.5280     0.1820 h1         1 XWO       0.039200
     41 H31B        56.2390    35.1310     0.6430 h1         1 XWO       0.030700
     42 H31A        54.4690    35.0300     0.7240 h1         1 XWO       0.030700
     43 H31C        55.3130    34.7210    -0.8150 h1         1 XWO       0.030700
     44 H2          49.9070    29.0290     0.1780 h1         1 XWO       0.074700
     45 H4          53.3730    30.5210     0.1360 ha         1 XWO       0.105000
     46 H9A         58.9760    32.2150    -0.5460 h1         1 XWO       0.056200
     47 H9C         57.8120    33.3670    -1.2690 h1         1 XWO       0.056200
     48 H9B         57.5690    32.7760     0.4020 h1         1 XWO       0.056200
     49 H17A        50.3470    23.8500    -5.7570 h1         1 XWO       0.056200
     50 H17B        50.9570    22.7190    -4.5100 h1         1 XWO       0.056200
     51 H17C        49.6060    23.8280    -4.1300 h1         1 XWO       0.056200
     52 H12         54.7130    27.8610    -2.9800 ha         1 XWO       0.115000
     53 H15         50.3600    25.7940    -2.7090 h4         1 XWO       0.155500
     54 H24         51.8210    33.1580    -0.0900 ha         1 XWO       0.123000
     55 H19         54.3340    26.0990    -4.3890 h4         1 XWO       0.038100
     56 H20         50.7280    27.4900    -1.3630 ha         1 XWO       0.105000
     57 H28B        54.2670    36.5100    -2.1370 h1         1 XWO       0.059700
     58 H28A        54.2820    38.1620    -1.5530 h1         1 XWO       0.059700
     59 H30B        56.1530    37.4650     1.5420 h1         1 XWO       0.030700
     60 H30C        55.2670    38.7150     0.6450 h1         1 XWO       0.030700
     61 H30A        54.3760    37.4870     1.5780 h1         1 XWO       0.030700
     62 H32         50.1100    37.0890    -0.1840 ha         1 XWO       0.118000
     63 H33         47.9430    36.1920     0.5290 ha         1 XWO       0.114000
     64 H35B        46.8370    32.8660     0.3900 hc         1 XWO       0.048700
     65 H35C        47.2070    33.2800     2.0800 hc         1 XWO       0.048700
     66 H35A        46.4720    34.4730     1.0100 hc         1 XWO       0.048700
     67 H21         51.3350    31.4690    -0.3170 hn         1 XWO       0.315500
     68 C22         49.5940    31.7250     0.7110 c          1 XWO       0.612700
     69 C9          57.9200    32.5050    -0.6000 c3         1 XWO       0.072900
     70 C17         50.5440    23.7200    -4.6870 c3         1 XWO       0.072900
@<TRIPOS>BOND
     1     1    11 1   
     2     1    34 1   
     3     1    35 1   
     4     1    36 1   
     5     2     3 2   
     6     2     5 1   
     7     2    10 1   
     8     3    31 1   
     9     3    37 1   
    10     4     5 2   
    11     4    31 1   
    12     5    38 1   
    13     6    17 ar  
    14     6    25 ar  
    15     6    68 1   
    16     7    21 1   
    17     7    32 1   
    18     7    39 1   
    19     7    40 1   
    20     8    30 1   
    21     8    41 1   
    22     8    42 1   
    23     8    43 1   
    24     9    11 1   
    25     9    12 ar  
    26     9    19 ar  
    27    10    12 ar  
    28    10    13 ar  
    29    11    29 1   
    30    11    44 1   
    31    12    45 1   
    32    13    14 ar  
    33    13    52 1   
    34    14    15 1   
    35    14    19 ar  
    36    15    16 2   
    37    15    18 1   
    38    16    27 1   
    39    16    53 1   
    40    17    20 ar  
    41    17    54 1   
    42    18    28 2   
    43    18    55 1   
    44    19    56 1   
    45    20    23 ar  
    46    20    32 1   
    47    21    30 1   
    48    21    57 1   
    49    21    58 1   
    50    22    30 1   
    51    22    59 1   
    52    22    60 1   
    53    22    61 1   
    54    23    24 ar  
    55    23    62 1   
    56    24    25 ar  
    57    24    63 1   
    58    25    26 1   
    59    26    64 1   
    60    26    65 1   
    61    26    66 1   
    62    27    28 1   
    63    27    70 1   
    64    29    67 1   
    65    29    68 1   
    66    31    69 1   
    67    33    68 2   
    68    46    69 1   
    69    47    69 1   
    70    48    69 1   
    71    49    70 1   
    72    50    70 1   
    73    51    70 1   
@<TRIPOS>SUBSTRUCTURE
     1 XWO         1 TEMP              0 ****  ****    0 ROOT
