@<TRIPOS>MOLECULE
XWO
   70    73     1     0     0
SMALL
abcg2


@<TRIPOS>ATOM
      1 C1          51.3660    29.0510     2.1180 c3         1 XWO      -0.103100
      2 C6          55.0250    30.3280    -1.9010 cc         1 XWO      -0.158000
      3 C7          55.1750    31.6880    -1.6990 cd         1 XWO      -0.156500
      4 N10         57.0650    30.9760    -2.6200 nd         1 XWO      -0.527800
      5 C11         56.2500    29.9470    -2.4850 cc         1 XWO       0.254400
      6 C23         50.1060    33.0790    -0.1600 ca         1 XWO      -0.109600
      7 C27         53.1850    36.7560    -0.4120 c3         1 XWO       0.124600
      8 C31         55.4920    35.3460     1.2580 c3         1 XWO       0.164600
      9 C3          51.8290    29.1070    -0.3450 ca         1 XWO      -0.093300
     10 C5          53.8610    29.4970    -1.6010 ca         1 XWO       0.023500
     11 C2          50.8630    29.5060     0.7540 c3         1 XWO       0.164000
     12 C4          52.9600    29.8690    -0.6050 ca         1 XWO      -0.103000
     13 C12         53.6200    28.3280    -2.3210 ca         1 XWO      -0.098000
     14 C13         52.5030    27.5350    -2.0620 ca         1 XWO       0.023500
     15 C14         52.2630    26.3190    -2.8350 cc         1 XWO      -0.158000
     16 C15         51.0940    25.5860    -2.9380 cd         1 XWO      -0.156500
     17 C24         51.3880    33.6050    -0.2060 ca         1 XWO      -0.131000
     18 C19         53.1630    25.6100    -3.6570 cc         1 XWO       0.254400
     19 C20         51.6110    27.9440    -1.0690 ca         1 XWO      -0.103000
     20 C25         51.5990    34.9810    -0.2780 ca         1 XWO       0.133100
     21 C28         54.6980    36.9310    -0.4330 c3         1 XWO       0.181800
     22 C30         55.0960    37.6370     1.8500 c3         1 XWO       0.164600
     23 C32         50.4980    35.8280    -0.2790 ca         1 XWO      -0.178000
     24 C33         49.2190    35.2850    -0.2150 ca         1 XWO      -0.081000
     25 C34         48.9830    33.9170    -0.1670 ca         1 XWO      -0.060300
     26 C35         47.5800    33.3850    -0.1040 c3         1 XWO      -0.045800
     27 N16         51.3440    24.5540    -3.7570 na         1 XWO       0.133300
     28 N18         52.5960    24.5530    -4.2030 nd         1 XWO      -0.527800
     29 N21         50.6500    30.9400     0.7780 ns         1 XWO      -0.505900
     30 N29         55.4330    36.7140     0.7920 n3         1 XWO      -0.738600
     31 N8          56.3960    32.0210    -2.1460 na         1 XWO       0.133300
     32 O26         52.8840    35.3730    -0.3440 os         1 XWO      -0.355100
     33 O36         49.3390    31.0120    -1.0590 o          1 XWO      -0.583100
     34 H1B         50.6460    29.2960     2.9000 hc         1 XWO       0.044700
     35 H1A         51.5170    27.9730     2.1220 hc         1 XWO       0.044700
     36 H1C         52.3180    29.5250     2.3640 hc         1 XWO       0.044700
     37 H7          54.5010    32.4290    -1.2980 h4         1 XWO       0.155500
     38 H11         56.5610    28.9610    -2.7970 h4         1 XWO       0.038100
     39 H27B        52.7660    37.1910    -1.3270 h1         1 XWO       0.039200
     40 H27A        52.7410    37.2910     0.4350 h1         1 XWO       0.039200
     41 H31B        56.2840    35.2520     2.0050 h1         1 XWO       0.030700
     42 H31A        54.5650    34.9810     1.7190 h1         1 XWO       0.030700
     43 H31C        55.7390    34.6770     0.4330 h1         1 XWO       0.030700
     44 H2          49.9030    29.0220     0.5580 h1         1 XWO       0.074700
     45 H4          53.1530    30.7640    -0.0230 ha         1 XWO       0.105000
     46 H9A         57.4810    33.5310    -3.0770 h1         1 XWO       0.056200
     47 H9C         56.2450    34.0750    -1.9350 h1         1 XWO       0.056200
     48 H9B         57.7600    33.3870    -1.3310 h1         1 XWO       0.056200
     49 H17A        50.2450    23.6040    -5.2590 h1         1 XWO       0.056200
     50 H17B        50.8160    22.5470    -3.9540 h1         1 XWO       0.056200
     51 H17C        49.4770    23.6670    -3.6660 h1         1 XWO       0.056200
     52 H12         54.2990    28.0510    -3.1180 ha         1 XWO       0.115000
     53 H15         50.1180    25.7330    -2.5010 h4         1 XWO       0.155500
     54 H24         52.2500    32.9500    -0.2100 ha         1 XWO       0.123000
     55 H19         54.2020    25.8290    -3.8560 h4         1 XWO       0.038100
     56 H20         50.7320    27.3470    -0.8500 ha         1 XWO       0.105000
     57 H28B        55.1150    36.2860    -1.2130 h1         1 XWO       0.059700
     58 H28A        54.8850    37.9600    -0.7570 h1         1 XWO       0.059700
     59 H30B        55.8270    37.5550     2.6570 h1         1 XWO       0.030700
     60 H30C        55.1270    38.6620     1.4780 h1         1 XWO       0.030700
     61 H30A        54.1030    37.4710     2.2940 h1         1 XWO       0.030700
     62 H32         50.6090    36.9030    -0.3280 ha         1 XWO       0.118000
     63 H33         48.3730    35.9630    -0.2040 ha         1 XWO       0.114000
     64 H35B        47.2850    32.9110    -1.0400 hc         1 XWO       0.048700
     65 H35C        47.4600    32.6410     0.6850 hc         1 XWO       0.048700
     66 H35A        46.8750    34.1900     0.0950 hc         1 XWO       0.048700
     67 H21         51.1530    31.4830     1.4620 hn         1 XWO       0.315500
     68 C22         49.9780    31.5870    -0.1920 c          1 XWO       0.612700
     69 C9          57.0100    33.3270    -2.1190 c3         1 XWO       0.072900
     70 C17         50.4200    23.5330    -4.1870 c3         1 XWO       0.072900
@<TRIPOS>BOND
     1     1    11 1   
     2     1    34 1   
     3     1    35 1   
     4     1    36 1   
     5     2     3 2   
     6     2     5 1   
     7     2    10 1   
     8     3    31 1   
     9     3    37 1   
    10     4     5 2   
    11     4    31 1   
    12     5    38 1   
    13     6    17 ar  
    14     6    25 ar  
    15     6    68 1   
    16     7    21 1   
    17     7    32 1   
    18     7    39 1   
    19     7    40 1   
    20     8    30 1   
    21     8    41 1   
    22     8    42 1   
    23     8    43 1   
    24     9    11 1   
    25     9    12 ar  
    26     9    19 ar  
    27    10    12 ar  
    28    10    13 ar  
    29    11    29 1   
    30    11    44 1   
    31    12    45 1   
    32    13    14 ar  
    33    13    52 1   
    34    14    15 1   
    35    14    19 ar  
    36    15    16 2   
    37    15    18 1   
    38    16    27 1   
    39    16    53 1   
    40    17    20 ar  
    41    17    54 1   
    42    18    28 2   
    43    18    55 1   
    44    19    56 1   
    45    20    23 ar  
    46    20    32 1   
    47    21    30 1   
    48    21    57 1   
    49    21    58 1   
    50    22    30 1   
    51    22    59 1   
    52    22    60 1   
    53    22    61 1   
    54    23    24 ar  
    55    23    62 1   
    56    24    25 ar  
    57    24    63 1   
    58    25    26 1   
    59    26    64 1   
    60    26    65 1   
    61    26    66 1   
    62    27    28 1   
    63    27    70 1   
    64    29    67 1   
    65    29    68 1   
    66    31    69 1   
    67    33    68 2   
    68    46    69 1   
    69    47    69 1   
    70    48    69 1   
    71    49    70 1   
    72    50    70 1   
    73    51    70 1   
@<TRIPOS>SUBSTRUCTURE
     1 XWO         1 TEMP              0 ****  ****    0 ROOT
