@<TRIPOS>MOLECULE
XWP
   71    75     1     0     0
SMALL
bcc


@<TRIPOS>ATOM
      1 C1         -31.9190    14.6460    -4.3340 c3         1 XWP       0.093300
      2 N2         -31.6720     5.9210    -4.5260 ns         1 XWP      -0.487100
      3 C3         -31.7660    10.9180    -3.7650 ca         1 XWP      -0.130600
      4 C4         -30.7550     9.9830    -3.5640 ca         1 XWP      -0.102500
      5 C5         -31.0170     8.6280    -3.6870 ca         1 XWP      -0.100000
      6 C6         -32.3040     8.1860    -3.9810 ca         1 XWP      -0.136600
      7 C11        -31.8700     4.0480    -6.0190 ca         1 XWP      -0.193000
      8 C12        -32.0520     2.6930    -6.2790 ca         1 XWP       0.074600
      9 C18        -32.5970     1.1380    -9.6620 ca         1 XWP      -0.194600
     10 C19        -32.8270    -0.1450   -10.2180 ca         1 XWP      -0.046000
     11 C21        -32.4730     0.7180   -12.3890 ca         1 XWP      -0.020200
     12 C22        -32.0150     2.8210   -13.0130 cc         1 XWP       0.427500
     13 C24        -32.3250     2.2140   -10.4880 ca         1 XWP      -0.021000
     14 C25        -31.7490     4.2630   -13.0360 ca         1 XWP      -0.151900
     15 C29        -30.5260     6.2140   -13.7410 ca         1 XWP      -0.208000
     16 C30        -30.7120     4.8390   -13.7890 ca         1 XWP       0.002700
     17 C2         -31.4370    12.3710    -3.6080 c          1 XWP       0.673700
     18 O1         -30.5840    12.7430    -2.8140 o          1 XWP      -0.593100
     19 C10        -31.8700     4.5350    -4.7190 ca         1 XWP       0.062600
     20 C13        -32.2430     1.8260    -5.2060 ca         1 XWP      -0.130000
     21 C14        -32.2410     2.3290    -3.9150 ca         1 XWP      -0.104000
     22 C15        -32.0500     3.6780    -3.6300 ca         1 XWP      -0.071300
     23 C16        -32.0150     4.1620    -2.2130 c3         1 XWP      -0.043800
     24 C17        -32.7170     1.2650    -8.1810 c          1 XWP       0.692700
     25 C20        -32.7580    -0.3800   -11.5680 ca         1 XWP      -0.157000
     26 C23        -32.2730     2.0060   -11.8670 ca         1 XWP      -0.238900
     27 C26        -32.5490     5.1020   -12.2580 ca         1 XWP      -0.071000
     28 C27        -32.3580     6.4700   -12.2150 ca         1 XWP      -0.210000
     29 C28        -31.3330     7.0560   -12.9660 ca         1 XWP       0.169600
     30 C31        -29.7800     4.0140   -14.6310 c3         1 XWP      -0.050800
     31 C7         -33.3230     9.1200    -4.1450 ca         1 XWP      -0.100000
     32 C8         -33.0540    10.4740    -4.0540 ca         1 XWP      -0.102500
     33 C9         -32.6570     6.7380    -4.0800 c          1 XWP       0.677700
     34 N1         -32.1280    13.2180    -4.3830 ns         1 XWP      -0.569900
     35 N4         -32.3290     0.8230   -13.7260 na         1 XWP       0.108900
     36 N5         -32.0550     2.0800   -14.0960 nd         1 XWP      -0.511100
     37 N6         -31.1510     8.4180   -12.9830 nv         1 XWP      -0.827200
     38 O2         -33.7680     6.3360    -3.7820 o          1 XWP      -0.570100
     39 O3         -33.4040     0.4920    -7.5340 o          1 XWP      -0.582100
     40 H2         -32.6210    15.1200    -5.0140 h1         1 XWP       0.042033
     41 H1         -32.0930    15.0380    -3.3330 h1         1 XWP       0.042033
     42 H3         -30.9070    14.9210    -4.6380 h1         1 XWP       0.042033
     43 H9         -30.8700     6.3390    -4.9750 hn         1 XWP       0.320500
     44 H5         -29.7560    10.3120    -3.3130 ha         1 XWP       0.146500
     45 H6         -30.2120     7.9230    -3.5210 ha         1 XWP       0.148000
     46 H10        -31.7400     4.7420    -6.8410 ha         1 XWP       0.128000
     47 H17        -33.0520    -0.9680    -9.5530 ha         1 XWP       0.154000
     48 H19        -32.1780     3.2140   -10.0970 ha         1 XWP       0.135000
     49 H22        -29.7170     6.6520   -14.3170 ha         1 XWP       0.129000
     50 H11        -32.3700     0.7660    -5.3600 ha         1 XWP       0.161000
     51 H12        -32.3720     1.6370    -3.0920 ha         1 XWP       0.136000
     52 H13        -32.9690     4.5990    -1.9160 hc         1 XWP       0.047700
     53 H14        -31.8030     3.3390    -1.5320 hc         1 XWP       0.047700
     54 H15        -31.2510     4.9250    -2.0660 hc         1 XWP       0.047700
     55 H18        -32.9160    -1.3710   -11.9710 ha         1 XWP       0.144000
     56 H20        -33.3590     4.6760   -11.6780 ha         1 XWP       0.132000
     57 H21        -33.0040     7.0880   -11.6040 ha         1 XWP       0.132000
     58 H24        -29.4270     3.1320   -14.0960 hc         1 XWP       0.047367
     59 H25        -30.2680     3.6580   -15.5380 hc         1 XWP       0.047367
     60 H23        -28.9110     4.5990   -14.9290 hc         1 XWP       0.047367
     61 H29        -32.3230     0.1990   -15.6880 h1         1 XWP       0.056700
     62 H28        -31.6250    -0.9680   -14.5530 h1         1 XWP       0.056700
     63 H30        -33.3830    -0.7420   -14.6290 h1         1 XWP       0.056700
     64 H7         -34.3320     8.7890    -4.3500 ha         1 XWP       0.148000
     65 H8         -33.8670    11.1770    -4.1830 ha         1 XWP       0.146500
     66 H4         -32.7280    12.8570    -5.1050 hn         1 XWP       0.317500
     67 H16        -31.4560     2.8580    -8.2290 hn         1 XWP       0.318500
     68 H26        -31.5090     8.9250   -12.1900 hn         1 XWP       0.396300
     69 H27        -30.2380     8.7420   -13.2610 hn         1 XWP       0.396300
     70 N3         -32.0070     2.2760    -7.6170 ns         1 XWP      -0.478100
     71 C32        -32.4200    -0.2370   -14.6990 c3         1 XWP       0.049600
@<TRIPOS>BOND
     1     1    34 1   
     2     1    40 1   
     3     1    41 1   
     4     1    42 1   
     5     2    19 1   
     6     2    33 1   
     7     2    43 1   
     8     3     4 ar  
     9     3    17 1   
    10     3    32 ar  
    11     4     5 ar  
    12     4    44 1   
    13     5     6 ar  
    14     5    45 1   
    15     6    31 ar  
    16     6    33 1   
    17     7     8 ar  
    18     7    19 ar  
    19     7    46 1   
    20     8    20 ar  
    21     8    70 1   
    22     9    10 ar  
    23     9    13 ar  
    24     9    24 1   
    25    10    25 ar  
    26    10    47 1   
    27    11    25 ar  
    28    11    26 ar  
    29    11    35 1   
    30    12    14 1   
    31    12    26 1   
    32    12    36 2   
    33    13    26 ar  
    34    13    48 1   
    35    14    16 ar  
    36    14    27 ar  
    37    15    16 ar  
    38    15    29 ar  
    39    15    49 1   
    40    16    30 1   
    41    17    18 2   
    42    17    34 1   
    43    19    22 ar  
    44    20    21 ar  
    45    20    50 1   
    46    21    22 ar  
    47    21    51 1   
    48    22    23 1   
    49    23    52 1   
    50    23    53 1   
    51    23    54 1   
    52    24    39 2   
    53    24    70 1   
    54    25    55 1   
    55    27    28 ar  
    56    27    56 1   
    57    28    29 ar  
    58    28    57 1   
    59    29    37 1   
    60    30    58 1   
    61    30    59 1   
    62    30    60 1   
    63    31    32 ar  
    64    31    64 1   
    65    32    65 1   
    66    33    38 2   
    67    34    66 1   
    68    35    36 1   
    69    35    71 1   
    70    37    68 1   
    71    37    69 1   
    72    61    71 1   
    73    62    71 1   
    74    63    71 1   
    75    67    70 1   
@<TRIPOS>SUBSTRUCTURE
     1 XWP         1 TEMP              0 ****  ****    0 ROOT
