@<TRIPOS>MOLECULE
XWP
   71    75     1     0     0
SMALL
No Charge or Current Charge


@<TRIPOS>ATOM
      1 C1         -31.6640    14.9420    -3.5920 c3         1 XWP       0.093300
      2 N2         -31.9790     6.0050    -4.6510 ns         1 XWP      -0.161000
      3 C3         -31.6950    11.0850    -3.8150 ca         1 XWP      -0.130600
      4 C4         -31.3630     9.9380    -3.0600 ca         1 XWP      -0.084500
      5 C5         -31.5580     8.6460    -3.5760 ca         1 XWP      -0.082000
      6 C6         -32.0950     8.4580    -4.8730 ca         1 XWP      -0.136600
      7 C11        -32.0880     4.0180    -6.1400 ca         1 XWP      -0.175000
      8 C12        -32.1010     2.6220    -6.3160 ca         1 XWP      -0.018000
      9 C18        -32.3660     0.7630    -9.6880 ca         1 XWP      -0.194600
     10 C19        -32.5410    -0.5110   -10.3050 ca         1 XWP      -0.028000
     11 C21        -32.4200     0.5190   -12.4730 ca         1 XWP      -0.020200
     12 C22        -32.1300     2.6650   -13.0070 cc         1 XWP       0.427500
     13 C24        -32.2160     1.9140   -10.5120 ca         1 XWP      -0.003000
     14 C25        -31.9820     4.1160   -12.8420 ca         1 XWP      -0.151900
     15 C29        -30.9290     6.2580   -13.3610 ca         1 XWP      -0.190000
     16 C30        -30.9910     4.8610   -13.5330 ca         1 XWP       0.002700
     17 C2         -31.4690    12.4620    -3.2190 c          1 XWP       0.606700
     18 O1         -31.0050    12.6210    -2.0980 o          1 XWP      -0.593100
     19 C10        -32.0000     4.5950    -4.8530 ca         1 XWP      -0.030000
     20 C13        -32.0100     1.7900    -5.1820 ca         1 XWP      -0.112000
     21 C14        -31.9090     2.3520    -3.9000 ca         1 XWP      -0.086000
     22 C15        -31.9010     3.7490    -3.7250 ca         1 XWP      -0.071300
     23 C16        -31.7900     4.3230    -2.3140 c3         1 XWP      -0.043800
     24 C17        -32.3370     0.8550    -8.1750 c          1 XWP       0.625700
     25 C20        -32.5650    -0.6440   -11.7100 ca         1 XWP      -0.139000
     26 C23        -32.2630     1.7400   -11.9020 ca         1 XWP      -0.238900
     27 C26        -32.8950     4.7970   -12.0080 ca         1 XWP      -0.053000
     28 C27        -32.8160     6.1890   -11.8460 ca         1 XWP      -0.192000
     29 C28        -31.8340     6.9180   -12.5220 ca         1 XWP       0.308000
     30 C31        -29.9600     4.1890   -14.4360 c3         1 XWP      -0.050800
     31 C7         -32.4260     9.6050    -5.6280 ca         1 XWP      -0.082000
     32 C8         -32.2310    10.8980    -5.1110 ca         1 XWP      -0.084500
     33 C9         -32.3210     7.0770    -5.4680 c          1 XWP       0.610700
     34 N1         -31.8130    13.5440    -4.0020 ns         1 XWP      -0.502900
     35 N4         -32.3770     0.7150   -13.8380 na         1 XWP       0.079600
     36 N5         -32.1950     2.0460   -14.1970 nd         1 XWP      -0.511100
     37 N6         -31.7600     8.2740   -12.3660 nv         1 XWP      -1.076000
     38 O2         -32.7920     6.9420    -6.5920 o          1 XWP      -0.570100
     39 O3         -32.4440    -0.1500    -7.4800 o          1 XWP      -0.582100
     40 H2         -32.0110    15.6010    -4.3980 h1         1 XWP       0.042033
     41 H1         -32.2620    15.1290    -2.6900 h1         1 XWP       0.042033
     42 H3         -30.6080    15.1550    -3.3800 h1         1 XWP       0.042033
     43 H9         -31.6470     6.2750    -3.7360 hn         1 XWP       0.154000
     44 H5         -30.9490    10.0450    -2.0590 ha         1 XWP       0.128500
     45 H6         -31.2830     7.8020    -2.9490 ha         1 XWP       0.130000
     46 H10        -32.1340     4.6460    -7.0240 ha         1 XWP       0.110000
     47 H17        -32.6540    -1.4050    -9.6940 ha         1 XWP       0.136000
     48 H19        -32.0620     2.9080   -10.0990 ha         1 XWP       0.117000
     49 H22        -30.1690     6.8330   -13.8830 ha         1 XWP       0.111000
     50 H11        -32.0030     0.7090    -5.2690 ha         1 XWP       0.143000
     51 H12        -31.8340     1.6940    -3.0370 ha         1 XWP       0.118000
     52 H13        -32.6420     4.9730    -2.0830 hc         1 XWP       0.047700
     53 H14        -31.7670     3.5340    -1.5530 hc         1 XWP       0.047700
     54 H15        -30.8720     4.9130    -2.2000 hc         1 XWP       0.047700
     55 H18        -32.6890    -1.6180   -12.1760 ha         1 XWP       0.126000
     56 H20        -33.6790     4.2460   -11.4920 ha         1 XWP       0.114000
     57 H21        -33.5270     6.6960   -11.2000 ha         1 XWP       0.114000
     58 H24        -29.5570     3.2800   -13.9750 hc         1 XWP       0.047367
     59 H25        -30.4020     3.9150   -15.4010 hc         1 XWP       0.047367
     60 H23        -29.1090     4.8500   -14.6400 hc         1 XWP       0.047367
     61 H29        -32.4440     0.0430   -15.8400 h1         1 XWP       0.056700
     62 H28        -31.6930    -1.0910   -14.6800 h1         1 XWP       0.056700
     63 H30        -33.4690    -0.8710   -14.6950 h1         1 XWP       0.056700
     64 H7         -32.8400     9.5010    -6.6290 ha         1 XWP       0.130000
     65 H8         -32.5040    11.7430    -5.7360 ha         1 XWP       0.128500
     66 H4         -32.1920    13.3480    -4.9200 hn         1 XWP       0.317500
     67 H16        -32.1370     2.8620    -8.3470 hn         1 XWP       0.152000
     68 H26        -32.3150     8.7280   -11.6430 hn         1 XWP       0.451500
     69 H27        -30.9590     8.7830   -12.7330 hn         1 XWP       0.451500
     70 N3         -32.1900     2.1340    -7.6490 ns         1 XWP      -0.152000
     71 C32        -32.5040    -0.3680   -14.8250 c3         1 XWP       0.078900
@<TRIPOS>BOND
     1     1    34 1   
     2     1    40 1   
     3     1    41 1   
     4     1    42 1   
     5     2    19 1   
     6     2    33 1   
     7     2    43 1   
     8     3     4 ar  
     9     3    17 1   
    10     3    32 ar  
    11     4     5 ar  
    12     4    44 1   
    13     5     6 ar  
    14     5    45 1   
    15     6    31 ar  
    16     6    33 1   
    17     7     8 ar  
    18     7    19 ar  
    19     7    46 1   
    20     8    20 ar  
    21     8    70 1   
    22     9    10 ar  
    23     9    13 ar  
    24     9    24 1   
    25    10    25 ar  
    26    10    47 1   
    27    11    25 ar  
    28    11    26 ar  
    29    11    35 1   
    30    12    14 1   
    31    12    26 1   
    32    12    36 2   
    33    13    26 ar  
    34    13    48 1   
    35    14    16 ar  
    36    14    27 ar  
    37    15    16 ar  
    38    15    29 ar  
    39    15    49 1   
    40    16    30 1   
    41    17    18 2   
    42    17    34 1   
    43    19    22 ar  
    44    20    21 ar  
    45    20    50 1   
    46    21    22 ar  
    47    21    51 1   
    48    22    23 1   
    49    23    52 1   
    50    23    53 1   
    51    23    54 1   
    52    24    39 2   
    53    24    70 1   
    54    25    55 1   
    55    27    28 ar  
    56    27    56 1   
    57    28    29 ar  
    58    28    57 1   
    59    29    37 1   
    60    30    58 1   
    61    30    59 1   
    62    30    60 1   
    63    31    32 ar  
    64    31    64 1   
    65    32    65 1   
    66    33    38 2   
    67    34    66 1   
    68    35    36 1   
    69    35    71 1   
    70    37    68 1   
    71    37    69 1   
    72    61    71 1   
    73    62    71 1   
    74    63    71 1   
    75    67    70 1   
@<TRIPOS>SUBSTRUCTURE
     1 XWP         1 TEMP              0 ****  ****    0 ROOT
