@<TRIPOS>MOLECULE
XWS
   28    29     1     0     0
SMALL
bcc


@<TRIPOS>ATOM
      1 N1         -22.5860     3.0070    28.9710 nh         1 XWS      -0.699000
      2 C4         -20.7560     4.5990    29.0510 c6         1 XWS      -0.149400
      3 C5         -23.6830     2.7990    29.7930 ca         1 XWS       0.199600
      4 C6         -23.5290     2.1060    31.0050 ca         1 XWS      -0.192500
      5 C7         -24.6050     1.8900    31.8510 ca         1 XWS      -0.092500
      6 C8         -25.8760     2.3390    31.5200 ca         1 XWS      -0.172000
      7 C10        -24.9760     3.2400    29.4650 ca         1 XWS      -0.192500
      8 C1         -21.2740     3.2620    29.5540 c6         1 XWS       0.248800
      9 C2         -22.7910     3.4880    27.6250 c6         1 XWS       0.707500
     10 C3         -20.5550     4.5480    27.5400 c6         1 XWS       0.416300
     11 C9         -26.0440     3.0110    30.3180 ca         1 XWS      -0.092500
     12 N2         -21.5040     3.6190    26.9860 n7         1 XWS      -0.872200
     13 O1         -23.5230     2.5330    26.9160 oh         1 XWS      -0.577800
     14 O2         -19.2850     4.0430    27.1870 oh         1 XWS      -0.585800
     15 H1         -19.8190     4.8650    29.5430 hc         1 XWS       0.054700
     16 H2         -21.4810     5.3760    29.3070 hc         1 XWS       0.054700
     17 H3         -22.5620     1.7100    31.2840 ha         1 XWS       0.124000
     18 H4         -24.4420     1.3510    32.7760 ha         1 XWS       0.125000
     19 H5         -26.7150     2.1650    32.1810 ha         1 XWS       0.131000
     20 H6         -25.1680     3.7830    28.5510 ha         1 XWS       0.124000
     21 H7         -20.5650     2.4610    29.3240 h1         1 XWS       0.059700
     22 H8         -21.3670     3.3000    30.6370 h1         1 XWS       0.059700
     23 H9         -23.3560     4.4390    27.6300 h3         1 XWS      -0.010300
     24 H10        -20.6700     5.5620    27.1240 h2         1 XWS       0.002700
     25 H11        -27.0240     3.3740    30.0340 ha         1 XWS       0.125000
     26 H12        -21.6450     3.7820    25.9970 hn         1 XWS       0.389800
     27 H14        -24.2060     2.9740    26.4010 ho         1 XWS       0.409000
     28 H15        -18.6310     4.7230    27.3800 ho         1 XWS       0.405000
@<TRIPOS>BOND
     1     1     3 1   
     2     1     8 1   
     3     1     9 1   
     4     2     8 1   
     5     2    10 1   
     6     2    15 1   
     7     2    16 1   
     8     3     4 ar  
     9     3     7 ar  
    10     4     5 ar  
    11     4    17 1   
    12     5     6 ar  
    13     5    18 1   
    14     6    11 ar  
    15     6    19 1   
    16     7    11 ar  
    17     7    20 1   
    18     8    21 1   
    19     8    22 1   
    20     9    12 1   
    21     9    13 1   
    22     9    23 1   
    23    10    12 1   
    24    10    14 1   
    25    10    24 1   
    26    11    25 1   
    27    12    26 1   
    28    13    27 1   
    29    14    28 1   
@<TRIPOS>SUBSTRUCTURE
     1 XWS         1 TEMP              0 ****  ****    0 ROOT
