@<TRIPOS>MOLECULE
XWS
   28    29     1     0     0
SMALL
No Charge or Current Charge


@<TRIPOS>ATOM
      1 N1         -22.5650     2.9100    28.9390 nh         1 XWS      -0.837400
      2 C4         -20.6460     4.5040    29.0870 c6         1 XWS      -0.149400
      3 C5         -23.7260     2.8260    29.7390 ca         1 XWS       0.338000
      4 C6         -23.7630     1.9060    30.8030 ca         1 XWS      -0.174500
      5 C7         -24.9010     1.7970    31.6200 ca         1 XWS      -0.074500
      6 C8         -26.0160     2.6160    31.3790 ca         1 XWS      -0.154000
      7 C10        -24.8500     3.6460    29.5080 ca         1 XWS      -0.174500
      8 C1         -21.2440     3.1680    29.5830 c6         1 XWS       0.248800
      9 C2         -22.6530     3.2270    27.5330 c6         1 XWS       0.730700
     10 C3         -20.8230     4.6710    27.5610 c6         1 XWS       0.439500
     11 C9         -25.9900     3.5410    30.3240 ca         1 XWS      -0.074500
     12 N2         -21.3810     3.4900    26.9730 n7         1 XWS      -0.927400
     13 O1         -23.0080     2.0210    27.0170 oh         1 XWS      -0.640000
     14 O2         -19.5890     4.8280    26.9040 oh         1 XWS      -0.648000
     15 H1         -19.5900     4.5660    29.3820 hc         1 XWS       0.054700
     16 H2         -21.1570     5.3340    29.5910 hc         1 XWS       0.054700
     17 H3         -22.9070     1.2640    30.9920 ha         1 XWS       0.106000
     18 H4         -24.9190     1.0790    32.4380 ha         1 XWS       0.107000
     19 H5         -26.8980     2.5340    32.0110 ha         1 XWS       0.113000
     20 H6         -24.8450     4.3790    28.7080 ha         1 XWS       0.106000
     21 H7         -20.5510     2.3460    29.3450 h1         1 XWS       0.059700
     22 H8         -21.3330     3.1990    30.6790 h1         1 XWS       0.059700
     23 H9         -23.4300     3.9590    27.2830 h3         1 XWS      -0.010300
     24 H10        -21.4830     5.5230    27.3410 h2         1 XWS       0.002700
     25 H11        -26.8520     4.1800    30.1400 ha         1 XWS       0.107000
     26 H12        -21.5420     3.6790    25.9880 hn         1 XWS       0.445000
     27 H14        -22.7730     1.5080    27.8120 ho         1 XWS       0.448000
     28 H15        -19.2040     5.6490    27.2720 ho         1 XWS       0.444000
@<TRIPOS>BOND
     1     1     3 1   
     2     1     8 1   
     3     1     9 1   
     4     2     8 1   
     5     2    10 1   
     6     2    15 1   
     7     2    16 1   
     8     3     4 ar  
     9     3     7 ar  
    10     4     5 ar  
    11     4    17 1   
    12     5     6 ar  
    13     5    18 1   
    14     6    11 ar  
    15     6    19 1   
    16     7    11 ar  
    17     7    20 1   
    18     8    21 1   
    19     8    22 1   
    20     9    12 1   
    21     9    13 1   
    22     9    23 1   
    23    10    12 1   
    24    10    14 1   
    25    10    24 1   
    26    11    25 1   
    27    12    26 1   
    28    13    27 1   
    29    14    28 1   
@<TRIPOS>SUBSTRUCTURE
     1 XWS         1 TEMP              0 ****  ****    0 ROOT
