@<TRIPOS>MOLECULE
XWV
   55    59     1     0     0
SMALL
No Charge or Current Charge


@<TRIPOS>ATOM
      1 C10        130.9230  -172.5520   113.7330 c6         1 XWV       0.197500
      2 C15       -131.4620  -173.1450   116.1390 c6         1 XWV       0.181800
      3 C17        126.8860  -172.1710   114.8510 cp         1 XWV       0.240500
      4 C20       -124.1060  -170.7670   112.6500 ca         1 XWV      -0.122000
      5 C21        123.9370  -171.7690   111.6850 ca         1 XWV      -0.067000
      6 C22       -124.7070  -172.9430   111.7530 ca         1 XWV      -0.109000
      7 C24        126.3570  -174.3480   112.8000 ca         1 XWV      -0.133000
      8 C03       -126.9300  -171.5520   118.4660 cx         1 XWV      -0.406300
      9 C04        125.6900  -172.2050   119.0540 cx         1 XWV      -0.071900
     10 C05       -127.0590  -172.5850   119.5710 cx         1 XWV      -0.071900
     11 C06        127.3950  -171.8790   117.0780 ca         1 XWV       0.200300
     12 C07       -128.7280  -172.2210   116.8150 ca         1 XWV      -0.257000
     13 C08        129.0790  -172.5280   115.4900 ca         1 XWV       0.399900
     14 C11       -131.2910  -171.0440   113.6700 c3         1 XWV      -0.109100
     15 C12        132.1280  -173.4590   113.3240 c6         1 XWV       0.141600
     16 C14       -132.6410  -174.0070   115.5990 c6         1 XWV       0.142600
     17 C18        125.8640  -172.0910   113.7570 cp         1 XWV      -0.132500
     18 C19       -125.0540  -170.9280   113.6710 ca         1 XWV      -0.053000
     19 C23        125.6620  -173.1180   112.7820 ca         1 XWV       0.026000
     20 C25       -126.1060  -175.3070   111.8060 ca         1 XWV       0.314900
     21 C27        124.5240  -173.9620   110.7960 ca         1 XWV       0.358900
     22 C29       -126.2110  -168.9750   117.6790 c3         1 XWV      -0.223100
     23 N01        126.8110  -169.4440   120.3100 n2         1 XWV      -0.760900
     24 N09       -130.3990  -172.8840   115.1070 nh         1 XWV      -0.770300
     25 N16        128.1510  -172.4940   114.5150 nb         1 XWV      -0.264000
     26 N26       -125.2100  -175.1270   110.8130 nb         1 XWV      -0.661000
     27 N28        126.4750  -171.8650   116.0960 nb         1 XWV      -0.234000
     28 O13       -133.1420  -173.4800   114.3520 os         1 XWV      -0.436000
     29 O30        128.6740  -169.4890   118.5200 o          1 XWV      -0.514000
     30 S02       -127.2820  -169.7700   118.8760 s6         1 XWV       0.864500
     31 H101       130.1450  -172.7260   112.9740 h1         1 XWV       0.092700
     32 H151      -131.0360  -173.6810   116.9990 h1         1 XWV       0.055700
     33 H152       131.8620  -172.1920   116.5130 h1         1 XWV       0.055700
     34 H201      -123.5060  -169.8610   112.6030 ha         1 XWV       0.120000
     35 H211       123.2010  -171.6370   110.8940 ha         1 XWV       0.118000
     36 H241      -127.0770  -174.5900   113.5720 ha         1 XWV       0.137000
     37 H041       125.1600  -172.9410   118.4540 hc         1 XWV       0.086450
     38 H042      -125.0510  -171.6150   119.7070 hc         1 XWV       0.086450
     39 H052       127.3310  -172.2500   120.5690 hc         1 XWV       0.086450
     40 H051      -127.4380  -173.5710   119.3100 hc         1 XWV       0.086450
     41 H071       129.4530  -172.2270   117.6190 ha         1 XWV       0.136000
     42 H112      -130.4240  -170.4150   113.9040 hc         1 XWV       0.047367
     43 H113       131.6370  -170.7670   112.6670 hc         1 XWV       0.047367
     44 H111      -132.0890  -170.7940   114.3790 hc         1 XWV       0.047367
     45 H121       132.5710  -173.0960   112.3860 h1         1 XWV       0.056200
     46 H122      -131.7730  -174.4850   113.1500 h1         1 XWV       0.056200
     47 H141       133.4560  -174.0260   116.3360 h1         1 XWV       0.053700
     48 H142      -132.3030  -175.0420   115.4420 h1         1 XWV       0.053700
     49 H191       125.1790  -170.1290   114.4000 ha         1 XWV       0.123000
     50 H251      -126.6380  -176.2580   111.8100 h4         1 XWV       0.016100
     51 H271       123.7980  -173.8460   109.9920 h4         1 XWV       0.017100
     52 H293      -125.1980  -169.3630   117.8250 h1         1 XWV       0.109033
     53 H292       126.5840  -169.2080   116.6780 h1         1 XWV       0.109033
     54 H291      -126.2490  -167.8970   117.8640 h1         1 XWV       0.109033
     55 H011       127.6350  -169.0830   120.8040 hn         1 XWV       0.420400
@<TRIPOS>BOND
     1     1    14 1   
     2     1    15 1   
     3     1    24 1   
     4     1    31 1   
     5     2    16 1   
     6     2    24 1   
     7     2    32 1   
     8     2    33 1   
     9     3    17 1   
    10     3    25 ar  
    11     3    27 ar  
    12     4     5 ar  
    13     4    18 ar  
    14     4    34 1   
    15     5     6 ar  
    16     5    35 1   
    17     6    19 ar  
    18     6    21 ar  
    19     7    19 ar  
    20     7    20 ar  
    21     7    36 1   
    22     8     9 1   
    23     8    10 1   
    24     8    11 1   
    25     8    30 1   
    26     9    10 1   
    27     9    37 1   
    28     9    38 1   
    29    10    39 1   
    30    10    40 1   
    31    11    12 ar  
    32    11    27 ar  
    33    12    13 ar  
    34    12    41 1   
    35    13    24 1   
    36    13    25 ar  
    37    14    42 1   
    38    14    43 1   
    39    14    44 1   
    40    15    28 1   
    41    15    45 1   
    42    15    46 1   
    43    16    28 1   
    44    16    47 1   
    45    16    48 1   
    46    17    18 ar  
    47    17    19 ar  
    48    18    49 1   
    49    20    26 ar  
    50    20    50 1   
    51    21    26 ar  
    52    21    51 1   
    53    22    30 1   
    54    22    52 1   
    55    22    53 1   
    56    22    54 1   
    57    23    30 2   
    58    23    55 1   
    59    29    30 2   
@<TRIPOS>SUBSTRUCTURE
     1 XWV         1 TEMP              0 ****  ****    0 ROOT
