@<TRIPOS>MOLECULE
XWV
   55    59     1     0     0
SMALL
abcg2


@<TRIPOS>ATOM
      1 C10       -130.7400  -172.9510   113.7250 c6         1 XWV       0.197500
      2 C15       -131.4980  -172.8850   116.0700 c6         1 XWV       0.181800
      3 C17       -126.9790  -172.0740   114.9110 cp         1 XWV       0.240500
      4 C20       -124.0710  -170.7780   112.8890 ca         1 XWV      -0.122000
      5 C21       -124.0230  -171.6240   111.8180 ca         1 XWV      -0.067000
      6 C22       -124.9330  -172.6980   111.7320 ca         1 XWV      -0.109000
      7 C24       -126.7450  -174.0360   112.5700 ca         1 XWV      -0.133000
      8 C03       -127.0660  -171.4370   118.4630 cx         1 XWV      -0.406300
      9 C04       -126.0690  -172.2850   119.1870 cx         1 XWV      -0.071900
     10 C05       -127.4880  -172.2580   119.6440 cx         1 XWV      -0.071900
     11 C06       -127.5050  -171.8020   117.0880 ca         1 XWV       0.200300
     12 C07       -128.8110  -172.1520   116.8440 ca         1 XWV      -0.257000
     13 C08       -129.1460  -172.4950   115.5170 ca         1 XWV       0.399900
     14 C11       -131.2000  -171.5830   113.2310 c3         1 XWV      -0.109100
     15 C12       -131.7890  -174.0340   113.5160 c6         1 XWV       0.141600
     16 C14       -132.5210  -173.9420   115.6950 c6         1 XWV       0.142600
     17 C18       -125.9650  -171.9880   113.8310 cp         1 XWV      -0.132500
     18 C19       -125.0370  -170.9730   113.8920 ca         1 XWV      -0.053000
     19 C23       -125.9170  -172.8990   112.7330 ca         1 XWV       0.026000
     20 C25       -126.5770  -174.8470   111.4830 ca         1 XWV       0.314900
     21 C27       -124.8730  -173.6090   110.6510 ca         1 XWV       0.358900
     22 C29       -125.4530  -169.1920   117.9180 c3         1 XWV      -0.223100
     23 N01       -126.6580  -169.3250   120.2160 n2         1 XWV      -0.760900
     24 N09       -130.3780  -172.9060   115.1440 nh         1 XWV      -0.770300
     25 N16       -128.2070  -172.4200   114.5680 nb         1 XWV      -0.264000
     26 N26       -125.6550  -174.6430   110.5160 nb         1 XWV      -0.661000
     27 N28       -126.5710  -171.7640   116.1340 nb         1 XWV      -0.234000
     28 O13       -132.9100  -173.8510   114.3470 os         1 XWV      -0.436000
     29 O30       -128.1040  -169.0680   118.0410 o          1 XWV      -0.514000
     30 S02       -126.9530  -169.6550   118.7460 s6         1 XWV       0.864500
     31 H101      -129.8570  -173.2530   113.1630 h1         1 XWV       0.092700
     32 H151      -131.1600  -173.1130   117.0790 h1         1 XWV       0.055700
     33 H152      -131.9630  -171.8930   116.0970 h1         1 XWV       0.055700
     34 H201      -123.3770  -169.9540   112.9740 ha         1 XWV       0.120000
     35 H211      -123.2880  -171.4880   111.0340 ha         1 XWV       0.118000
     36 H241      -127.5100  -174.2720   113.2930 ha         1 XWV       0.137000
     37 H041      -125.7060  -173.1570   118.6590 hc         1 XWV       0.086450
     38 H042      -125.3310  -171.7870   119.8040 hc         1 XWV       0.086450
     39 H052      -127.7130  -171.7550   120.5750 hc         1 XWV       0.086450
     40 H051      -128.1190  -173.1120   119.4330 hc         1 XWV       0.086450
     41 H071      -129.5240  -172.1510   117.6520 ha         1 XWV       0.136000
     42 H112      -130.4180  -170.8370   113.3740 hc         1 XWV       0.047367
     43 H113      -131.4300  -171.6260   112.1650 hc         1 XWV       0.047367
     44 H111      -132.0950  -171.2420   113.7510 hc         1 XWV       0.047367
     45 H121      -132.1330  -174.0080   112.4810 h1         1 XWV       0.056200
     46 H122      -131.3350  -175.0190   113.6970 h1         1 XWV       0.056200
     47 H141      -133.4110  -173.8140   116.3110 h1         1 XWV       0.053700
     48 H142      -132.1050  -174.9380   115.9050 h1         1 XWV       0.053700
     49 H191      -125.0640  -170.2900   114.7300 ha         1 XWV       0.123000
     50 H251      -127.2080  -175.7200   111.3600 h4         1 XWV       0.016100
     51 H271      -124.1240  -173.4470   109.8800 h4         1 XWV       0.017100
     52 H293      -124.6100  -169.7260   118.3490 h1         1 XWV       0.109033
     53 H292      -125.5510  -169.4270   116.8620 h1         1 XWV       0.109033
     54 H291      -125.3330  -168.1190   118.0580 h1         1 XWV       0.109033
     55 H011      -127.4690  -169.4890   120.8060 hn         1 XWV       0.420400
@<TRIPOS>BOND
     1     1    14 1   
     2     1    15 1   
     3     1    24 1   
     4     1    31 1   
     5     2    16 1   
     6     2    24 1   
     7     2    32 1   
     8     2    33 1   
     9     3    17 1   
    10     3    25 ar  
    11     3    27 ar  
    12     4     5 ar  
    13     4    18 ar  
    14     4    34 1   
    15     5     6 ar  
    16     5    35 1   
    17     6    19 ar  
    18     6    21 ar  
    19     7    19 ar  
    20     7    20 ar  
    21     7    36 1   
    22     8     9 1   
    23     8    10 1   
    24     8    11 1   
    25     8    30 1   
    26     9    10 1   
    27     9    37 1   
    28     9    38 1   
    29    10    39 1   
    30    10    40 1   
    31    11    12 ar  
    32    11    27 ar  
    33    12    13 ar  
    34    12    41 1   
    35    13    24 1   
    36    13    25 ar  
    37    14    42 1   
    38    14    43 1   
    39    14    44 1   
    40    15    28 1   
    41    15    45 1   
    42    15    46 1   
    43    16    28 1   
    44    16    47 1   
    45    16    48 1   
    46    17    18 ar  
    47    17    19 ar  
    48    18    49 1   
    49    20    26 ar  
    50    20    50 1   
    51    21    26 ar  
    52    21    51 1   
    53    22    30 1   
    54    22    52 1   
    55    22    53 1   
    56    22    54 1   
    57    23    30 2   
    58    23    55 1   
    59    29    30 2   
@<TRIPOS>SUBSTRUCTURE
     1 XWV         1 TEMP              0 ****  ****    0 ROOT
