@<TRIPOS>MOLECULE
XWW
   50    53     1     0     0
SMALL
abcg2


@<TRIPOS>ATOM
      1 C1          -2.3530     0.1730    -1.8600 c3         1 XWW      -0.111100
      2 C2          -2.0370    -0.5150    -0.5290 c3         1 XWW       0.223200
      3 C3          -3.0880    -1.5540    -0.2230 ca         1 XWW       0.109300
      4 N1          -4.2820    -1.0940     0.1310 nb         1 XWW      -0.161000
      5 C4          -5.2340    -1.9790     0.3740 ca         1 XWW       0.086400
      6 C5          -4.9790    -3.3330     0.2580 ca         1 XWW       0.061000
      7 C6          -3.7160    -3.7340    -0.1190 ca         1 XWW       0.086400
      8 N2          -2.7740    -2.8320    -0.3590 nb         1 XWW      -0.161000
      9 F1          -5.9340    -4.2280     0.5070 f          1 XWW      -0.154000
     10 N3          -0.7360    -1.1340    -0.5250 nu         1 XWW      -0.924100
     11 C7           0.4220    -0.4730    -0.3900 ca         1 XWW       0.461900
     12 N4           0.3690     0.8480    -0.2020 nb         1 XWW      -0.376000
     13 C8           1.5580     1.4210    -0.0670 ca         1 XWW       0.461900
     14 N5           2.7370     0.8040    -0.1040 nb         1 XWW      -0.379000
     15 C9           2.6690    -0.5160    -0.2960 ca         1 XWW       0.471900
     16 N6           1.5350    -1.2030    -0.4480 nb         1 XWW      -0.381000
     17 N7           3.8280    -1.2040    -0.3420 nh         1 XWW      -0.777300
     18 C10          5.1270    -0.5710    -0.2480 c6         1 XWW       0.191800
     19 C11          5.9900    -1.3180     0.7530 c6         1 XWW       0.134600
     20 O1           6.0790    -2.6910     0.4450 os         1 XWW      -0.448000
     21 C12          4.8010    -3.2890     0.4240 c6         1 XWW       0.134600
     22 C13          3.8870    -2.6300    -0.5940 c6         1 XWW       0.191800
     23 N8           1.6060     2.7570     0.1250 nu         1 XWW      -0.867800
     24 C14          0.5460     3.6490     0.1790 cc         1 XWW       0.491900
     25 C15         -0.8060     3.4680     0.0370 cd         1 XWW      -0.236000
     26 N9          -1.3430     4.7230     0.1840 na         1 XWW      -0.163500
     27 C16         -0.3280     5.5720     0.4000 cd         1 XWW       0.405400
     28 N10          0.8330     4.9590     0.4040 nc         1 XWW      -0.713000
     29 C17         -2.7470     5.0540     0.1140 c3         1 XWW       0.060900
     30 H11C        -1.6090     0.9420    -2.0600 hc         1 XWW       0.052367
     31 H12C        -2.3410    -0.5460    -2.6800 hc         1 XWW       0.052367
     32 H13C        -3.3340     0.6460    -1.8280 hc         1 XWW       0.052367
     33 H2          -2.0790     0.2340     0.2670 h1         1 XWW       0.092700
     34 H3          -0.6870    -2.1290    -0.6820 hn         1 XWW       0.529000
     35 H4          -6.2120    -1.6140     0.6680 h4         1 XWW       0.045100
     36 H6          -3.4620    -4.7830    -0.2270 h4         1 XWW       0.045100
     37 H8           2.5230     3.1590     0.2380 hn         1 XWW       0.527000
     38 H101         5.6110    -0.5740    -1.2320 h1         1 XWW       0.069450
     39 H102         5.0140     0.4640     0.0610 h1         1 XWW       0.069450
     40 H131         2.8920    -3.0580    -0.5280 h1         1 XWW       0.069450
     41 H132         4.2650    -2.8090    -1.6070 h1         1 XWW       0.069450
     42 H111         7.0030    -0.9130     0.7410 h1         1 XWW       0.053450
     43 H112         5.5810    -1.1760     1.7640 h1         1 XWW       0.053450
     44 H121         4.9370    -4.3410     0.1690 h1         1 XWW       0.053450
     45 H122         4.3360    -3.2360     1.4180 h1         1 XWW       0.053450
     46 H15         -1.4060     2.5960    -0.1440 h4         1 XWW       0.181000
     47 H16         -0.4800     6.6300     0.5480 h5         1 XWW       0.054100
     48 H171        -3.3060     4.5100     0.8730 h1         1 XWW       0.053367
     49 H172        -2.8700     6.1190     0.2860 h1         1 XWW       0.053367
     50 H173        -3.1500     4.8100    -0.8670 h1         1 XWW       0.053367
@<TRIPOS>BOND
     1     1     2 1   
     2     1    30 1   
     3     1    31 1   
     4     1    32 1   
     5     2     3 1   
     6     2    10 1   
     7     2    33 1   
     8     3     4 ar  
     9     3     8 ar  
    10     4     5 ar  
    11     5     6 ar  
    12     5    35 1   
    13     6     7 ar  
    14     6     9 1   
    15     7     8 ar  
    16     7    36 1   
    17    10    11 1   
    18    10    34 1   
    19    11    12 ar  
    20    11    16 ar  
    21    12    13 ar  
    22    13    14 ar  
    23    13    23 1   
    24    14    15 ar  
    25    15    16 ar  
    26    15    17 1   
    27    17    18 1   
    28    17    22 1   
    29    18    19 1   
    30    18    38 1   
    31    18    39 1   
    32    19    20 1   
    33    19    42 1   
    34    19    43 1   
    35    20    21 1   
    36    21    22 1   
    37    21    44 1   
    38    21    45 1   
    39    22    40 1   
    40    22    41 1   
    41    23    24 1   
    42    23    37 1   
    43    24    25 2   
    44    24    28 1   
    45    25    26 1   
    46    25    46 1   
    47    26    27 1   
    48    26    29 1   
    49    27    28 2   
    50    27    47 1   
    51    29    48 1   
    52    29    49 1   
    53    29    50 1   
@<TRIPOS>SUBSTRUCTURE
     1 XWW         1 TEMP              0 ****  ****    0 ROOT
