@<TRIPOS>MOLECULE
XWW
   50    53     1     0     0
SMALL
No Charge or Current Charge


@<TRIPOS>ATOM
      1 C1          -2.3870    -0.1210    -2.0740 c3         1 XWW      -0.111100
      2 C2          -2.2210    -0.6730    -0.6430 c3         1 XWW       0.223200
      3 C3          -3.2770    -1.7430    -0.3220 ca         1 XWW       0.109300
      4 N1          -4.2320    -1.4030     0.5780 nb         1 XWW      -0.161000
      5 C4          -5.1640    -2.3370     0.8630 ca         1 XWW       0.086400
      6 C5          -5.1400    -3.6010     0.2510 ca         1 XWW       0.061000
      7 C6          -4.1120    -3.8660    -0.6700 ca         1 XWW       0.086400
      8 N2          -3.1760    -2.9370    -0.9600 nb         1 XWW      -0.161000
      9 F1          -6.0760    -4.5340     0.5380 f          1 XWW      -0.154000
     10 N3          -0.8490    -1.1950    -0.4610 nu         1 XWW      -0.924100
     11 C7           0.3130    -0.4810    -0.2540 ca         1 XWW       0.461900
     12 N4           0.2310     0.8470    -0.1240 nb         1 XWW      -0.376000
     13 C8           1.4080     1.4500     0.0730 ca         1 XWW       0.461900
     14 N5           2.5960     0.8410     0.1490 nb         1 XWW      -0.379000
     15 C9           2.5550    -0.4960     0.0040 ca         1 XWW       0.471900
     16 N6           1.4310    -1.2080    -0.2000 nb         1 XWW      -0.381000
     17 N7           3.7810    -1.2050     0.0780 nh         1 XWW      -0.777300
     18 C10          5.1030    -0.4780     0.0390 c6         1 XWW       0.191800
     19 C11          6.2840    -1.3240     0.6010 c6         1 XWW       0.134600
     20 O1           6.3180    -2.6350    -0.0040 os         1 XWW      -0.448000
     21 C12          5.1110    -3.3860     0.2540 c6         1 XWW       0.134600
     22 C13          3.8630    -2.6570    -0.3270 c6         1 XWW       0.191800
     23 N8           1.4370     2.8170     0.2160 nu         1 XWW      -0.867800
     24 C14          0.4970     3.7810     0.2190 cc         1 XWW       0.491900
     25 C15         -0.8360     3.7440    -0.0500 cd         1 XWW      -0.236000
     26 N9          -1.2410     5.0580     0.1010 na         1 XWW      -0.163500
     27 C16         -0.1120     5.7960     0.4470 cd         1 XWW       0.405400
     28 N10          0.9570     5.0080     0.5150 nc         1 XWW      -0.713000
     29 C17         -2.6040     5.5800    -0.0690 c3         1 XWW       0.060900
     30 H11C        -1.6790     0.6940    -2.2640 hc         1 XWW       0.052367
     31 H12C        -2.2170    -0.9060    -2.8210 hc         1 XWW       0.052367
     32 H13C        -3.4000     0.2730    -2.2140 hc         1 XWW       0.052367
     33 H2          -2.3810     0.1610     0.0570 h1         1 XWW       0.092700
     34 H3          -0.7140    -2.2020    -0.5530 hn         1 XWW       0.529000
     35 H4          -5.9330    -2.0670     1.5850 h4         1 XWW       0.045100
     36 H6          -4.0350    -4.8250    -1.1800 h4         1 XWW       0.045100
     37 H8           2.3570     3.1950     0.4120 hn         1 XWW       0.527000
     38 H101         5.3400    -0.1900    -0.9960 h1         1 XWW       0.069450
     39 H102         5.0620     0.4490     0.6290 h1         1 XWW       0.069450
     40 H131         2.9780    -3.2130     0.0140 h1         1 XWW       0.069450
     41 H132         3.8900    -2.7360    -1.4240 h1         1 XWW       0.069450
     42 H111         7.2360    -0.8110     0.4030 h1         1 XWW       0.053450
     43 H112         6.1790    -1.4320     1.6900 h1         1 XWW       0.053450
     44 H121         5.2020    -4.3830    -0.1990 h1         1 XWW       0.053450
     45 H122         4.9920    -3.5170     1.3390 h1         1 XWW       0.053450
     46 H15         -1.4890     2.9270    -0.3260 h4         1 XWW       0.181000
     47 H16         -0.1490     6.8650     0.6250 h5         1 XWW       0.054100
     48 H171        -3.1260     5.5660     0.8950 h1         1 XWW       0.053367
     49 H172        -2.5630     6.6110    -0.4440 h1         1 XWW       0.053367
     50 H173        -3.1520     4.9580    -0.7870 h1         1 XWW       0.053367
@<TRIPOS>BOND
     1     1     2 1   
     2     1    30 1   
     3     1    31 1   
     4     1    32 1   
     5     2     3 1   
     6     2    10 1   
     7     2    33 1   
     8     3     4 ar  
     9     3     8 ar  
    10     4     5 ar  
    11     5     6 ar  
    12     5    35 1   
    13     6     7 ar  
    14     6     9 1   
    15     7     8 ar  
    16     7    36 1   
    17    10    11 1   
    18    10    34 1   
    19    11    12 ar  
    20    11    16 ar  
    21    12    13 ar  
    22    13    14 ar  
    23    13    23 1   
    24    14    15 ar  
    25    15    16 ar  
    26    15    17 1   
    27    17    18 1   
    28    17    22 1   
    29    18    19 1   
    30    18    38 1   
    31    18    39 1   
    32    19    20 1   
    33    19    42 1   
    34    19    43 1   
    35    20    21 1   
    36    21    22 1   
    37    21    44 1   
    38    21    45 1   
    39    22    40 1   
    40    22    41 1   
    41    23    24 1   
    42    23    37 1   
    43    24    25 2   
    44    24    28 1   
    45    25    26 1   
    46    25    46 1   
    47    26    27 1   
    48    26    29 1   
    49    27    28 2   
    50    27    47 1   
    51    29    48 1   
    52    29    49 1   
    53    29    50 1   
@<TRIPOS>SUBSTRUCTURE
     1 XWW         1 TEMP              0 ****  ****    0 ROOT
