@<TRIPOS>MOLECULE
XWY
   56    60     1     0     0
SMALL
No Charge or Current Charge


@<TRIPOS>ATOM
      1 C10        130.6660  -173.5530   113.2100 c6         1 XWY       0.198500
      2 C13       -132.3770  -175.0000   115.0900 c6         1 XWY       0.142600
      3 C15        131.0210  -172.0420   113.1560 c3         1 XWY      -0.108100
      4 C17       -126.6150  -173.2080   114.2810 cp         1 XWY       0.240500
      5 C20        123.9090  -171.7580   112.0260 ca         1 XWY      -0.118000
      6 C21       -123.7190  -172.7710   111.0780 ca         1 XWY      -0.084000
      7 C22        124.4470  -173.9700   111.1700 ca         1 XWY      -0.046000
      8 C24       -126.0580  -175.4070   112.2930 ca         1 XWY      -0.087000
      9 C26        124.9150  -176.1980   110.2960 ca         1 XWY      -0.107000
     10 C03       -126.6030  -172.6380   117.9040 cx         1 XWY      -0.405300
     11 C04        126.7270  -173.6830   118.9980 cx         1 XWY      -0.072900
     12 C05       -125.3620  -173.3110   118.4680 cx         1 XWY      -0.072900
     13 C06        127.0890  -172.9420   116.5190 ca         1 XWY       0.199300
     14 C07       -128.4290  -173.2690   116.2700 ca         1 XWY      -0.259000
     15 C08        128.8010  -173.5560   114.9450 ca         1 XWY       0.398900
     16 C11       -131.8840  -174.4480   112.8110 c6         1 XWY       0.141600
     17 C14        131.1830  -174.1530   115.6190 c6         1 XWY       0.182800
     18 C18       -125.6080  -173.1200   113.1740 cp         1 XWY      -0.125500
     19 C19        124.8390  -171.9330   113.0600 ca         1 XWY      -0.068000
     20 C23       -125.3870  -174.1620   112.2170 ca         1 XWY       0.000000
     21 C25        125.8270  -176.4120   111.3380 ca         1 XWY      -0.114000
     22 C27       -124.2220  -174.9810   110.2160 ca         1 XWY      -0.101000
     23 C29        125.8680  -170.0580   117.1410 c3         1 XWY      -0.222100
     24 N01       -126.4390  -170.5540   119.7740 n2         1 XWY      -0.763900
     25 N09        130.1300  -173.8950   114.5770 nh         1 XWY      -0.771300
     26 N16       -127.8860  -173.5160   113.9580 nb         1 XWY      -0.263000
     27 N28        126.1830  -172.9230   115.5250 nb         1 XWY      -0.233000
     28 O12       -132.8870  -174.4620   113.8500 os         1 XWY      -0.437000
     29 O30        128.3250  -170.5570   118.0080 o          1 XWY      -0.514000
     30 S02       -126.9310  -170.8570   118.3410 s6         1 XWY       0.865500
     31 H101       129.8990  -173.7330   112.4410 h1         1 XWY       0.094700
     32 H131      -133.1840  -175.0140   115.8360 h1         1 XWY       0.053700
     33 H132       132.0510  -176.0370   114.9240 h1         1 XWY       0.053700
     34 H152      -130.1450  -171.4220   113.3820 hc         1 XWY       0.046700
     35 H153       131.3760  -171.7580   112.1580 hc         1 XWY       0.046700
     36 H151      -131.8080  -171.7870   113.8750 hc         1 XWY       0.046700
     37 H201       123.3400  -170.8340   111.9570 ha         1 XWY       0.116000
     38 H211      -122.9980  -172.6260   110.2770 ha         1 XWY       0.114000
     39 H241       126.7550  -175.6230   113.0970 ha         1 XWY       0.126000
     40 H261      -124.7360  -176.9770   109.5580 ha         1 XWY       0.113000
     41 H041       126.9840  -173.3580   120.0040 hc         1 XWY       0.085950
     42 H042      -127.1200  -174.6620   118.7300 hc         1 XWY       0.085950
     43 H052       124.8470  -174.0440   117.8510 hc         1 XWY       0.085950
     44 H051      -124.7080  -172.7360   119.1190 hc         1 XWY       0.085950
     45 H071       129.1430  -173.2790   117.0840 ha         1 XWY       0.134000
     46 H111      -132.3350  -174.0760   111.8790 h1         1 XWY       0.055700
     47 H112       131.5420  -175.4770   112.6290 h1         1 XWY       0.055700
     48 H141      -130.7530  -174.6970   116.4720 h1         1 XWY       0.054700
     49 H142       131.5700  -173.1970   116.0040 h1         1 XWY       0.054700
     50 H191      -124.9840  -171.1270   113.7770 ha         1 XWY       0.120000
     51 H251       126.3540  -177.3600   111.4120 ha         1 XWY       0.110000
     52 H271      -123.5050  -174.8270   109.4120 ha         1 XWY       0.112000
     53 H292       124.8570  -170.4580   117.2690 h1         1 XWY       0.109367
     54 H293      -126.2570  -170.2740   116.1420 h1         1 XWY       0.109367
     55 H291       125.8930  -168.9820   117.3410 h1         1 XWY       0.109367
     56 H011      -127.2530  -170.1920   120.2830 hn         1 XWY       0.420400
@<TRIPOS>BOND
     1     1     3 1   
     2     1    16 1   
     3     1    25 1   
     4     1    31 1   
     5     2    17 1   
     6     2    28 1   
     7     2    32 1   
     8     2    33 1   
     9     3    34 1   
    10     3    35 1   
    11     3    36 1   
    12     4    18 1   
    13     4    26 ar  
    14     4    27 ar  
    15     5     6 ar  
    16     5    19 ar  
    17     5    37 1   
    18     6     7 ar  
    19     6    38 1   
    20     7    20 ar  
    21     7    22 ar  
    22     8    20 ar  
    23     8    21 ar  
    24     8    39 1   
    25     9    21 ar  
    26     9    22 ar  
    27     9    40 1   
    28    10    11 1   
    29    10    12 1   
    30    10    13 1   
    31    10    30 1   
    32    11    12 1   
    33    11    41 1   
    34    11    42 1   
    35    12    43 1   
    36    12    44 1   
    37    13    14 ar  
    38    13    27 ar  
    39    14    15 ar  
    40    14    45 1   
    41    15    25 1   
    42    15    26 ar  
    43    16    28 1   
    44    16    46 1   
    45    16    47 1   
    46    17    25 1   
    47    17    48 1   
    48    17    49 1   
    49    18    19 ar  
    50    18    20 ar  
    51    19    50 1   
    52    21    51 1   
    53    22    52 1   
    54    23    30 1   
    55    23    53 1   
    56    23    54 1   
    57    23    55 1   
    58    24    30 2   
    59    24    56 1   
    60    29    30 2   
@<TRIPOS>SUBSTRUCTURE
     1 XWY         1 TEMP              0 ****  ****    0 ROOT
