@<TRIPOS>MOLECULE
XWY
   56    60     1     0     0
SMALL
abcg2


@<TRIPOS>ATOM
      1 C10       -130.4640  -173.9660   113.1920 c6         1 XWY       0.198500
      2 C13       -132.2360  -174.9600   115.1690 c6         1 XWY       0.142600
      3 C15       -130.9230  -172.5940   112.7050 c3         1 XWY      -0.108100
      4 C17       -126.6920  -173.1160   114.3550 cp         1 XWY       0.240500
      5 C20       -123.8870  -171.7400   112.2580 ca         1 XWY      -0.118000
      6 C21       -123.8180  -172.6120   111.2090 ca         1 XWY      -0.084000
      7 C22       -124.6650  -173.7420   111.1570 ca         1 XWY      -0.046000
      8 C24       -126.4030  -175.1420   112.1230 ca         1 XWY      -0.087000
      9 C26       -125.3510  -175.7780   110.0430 ca         1 XWY      -0.107000
     10 C03       -126.7430  -172.5120   117.9140 cx         1 XWY      -0.405300
     11 C04       -127.1760  -173.3310   119.0920 cx         1 XWY      -0.072900
     12 C05       -125.7600  -173.3840   118.6280 cx         1 XWY      -0.072900
     13 C06       -127.1980  -172.8620   116.5400 ca         1 XWY       0.199300
     14 C07       -128.5080  -173.1980   116.3030 ca         1 XWY      -0.259000
     15 C08       -128.8570  -173.5260   114.9760 ca         1 XWY       0.398900
     16 C11       -131.5180  -175.0440   112.9850 c6         1 XWY       0.141600
     17 C14       -131.2090  -173.9050   115.5420 c6         1 XWY       0.182800
     18 C18       -125.6910  -173.0180   113.2620 cp         1 XWY      -0.125500
     19 C19       -124.8220  -171.9530   113.2860 ca         1 XWY      -0.068000
     20 C23       -125.6170  -173.9640   112.1930 ca         1 XWY       0.000000
     21 C25       -126.2720  -176.0200   111.0810 ca         1 XWY      -0.114000
     22 C27       -124.5630  -174.6630   110.0880 ca         1 XWY      -0.101000
     23 C29       -125.0770  -170.3030   117.3820 c3         1 XWY      -0.222100
     24 N01       -126.2930  -170.4170   119.6750 n2         1 XWY      -0.763900
     25 N09       -130.0940  -173.9270   114.6090 nh         1 XWY      -0.771300
     26 N16       -127.9270  -173.4470   114.0200 nb         1 XWY      -0.263000
     27 N28       -126.2710  -172.8230   115.5780 nb         1 XWY      -0.233000
     28 O12       -132.6340  -174.8630   113.8230 os         1 XWY      -0.437000
     29 O30       -127.7270  -170.1190   117.4980 o          1 XWY      -0.514000
     30 S02       -126.5910  -170.7350   118.2040 s6         1 XWY       0.865500
     31 H101      -129.5860  -174.2680   112.6240 h1         1 XWY       0.094700
     32 H131      -133.1220  -174.8320   115.7910 h1         1 XWY       0.053700
     33 H132      -131.8200  -175.9570   115.3740 h1         1 XWY       0.053700
     34 H152      -130.1370  -171.8520   112.8480 hc         1 XWY       0.046700
     35 H153      -131.1580  -172.6320   111.6410 hc         1 XWY       0.046700
     36 H151      -131.8140  -172.2520   113.2320 hc         1 XWY       0.046700
     37 H201      -123.2340  -170.8780   112.3020 ha         1 XWY       0.116000
     38 H211      -123.1060  -172.4530   110.4080 ha         1 XWY       0.114000
     39 H241      -127.1190  -175.3560   112.9010 ha         1 XWY       0.126000
     40 H261      -125.2630  -176.4780   109.2230 ha         1 XWY       0.113000
     41 H041      -127.3860  -172.8290   120.0280 hc         1 XWY       0.085950
     42 H042      -127.8250  -174.1710   118.8810 hc         1 XWY       0.085950
     43 H052      -125.4160  -174.2600   118.0940 hc         1 XWY       0.085950
     44 H051      -125.0100  -172.9040   119.2450 hc         1 XWY       0.085950
     45 H071      -129.2150  -173.1990   117.1170 ha         1 XWY       0.134000
     46 H111      -131.8690  -175.0120   111.9520 h1         1 XWY       0.055700
     47 H112      -131.0660  -176.0320   113.1570 h1         1 XWY       0.055700
     48 H141      -130.8650  -174.1360   116.5480 h1         1 XWY       0.054700
     49 H142      -131.6720  -172.9130   115.5730 h1         1 XWY       0.054700
     50 H191      -124.8750  -171.2470   114.1030 ha         1 XWY       0.120000
     51 H251      -126.8820  -176.9140   111.0560 ha         1 XWY       0.110000
     52 H271      -123.8380  -174.4700   109.3060 ha         1 XWY       0.112000
     53 H292      -124.2470  -170.8410   117.8300 h1         1 XWY       0.109367
     54 H293      -125.1670  -170.5530   116.3290 h1         1 XWY       0.109367
     55 H291      -124.9450  -169.2300   117.5080 h1         1 XWY       0.109367
     56 H011      -127.1100  -170.5610   120.2620 hn         1 XWY       0.420400
@<TRIPOS>BOND
     1     1     3 1   
     2     1    16 1   
     3     1    25 1   
     4     1    31 1   
     5     2    17 1   
     6     2    28 1   
     7     2    32 1   
     8     2    33 1   
     9     3    34 1   
    10     3    35 1   
    11     3    36 1   
    12     4    18 1   
    13     4    26 ar  
    14     4    27 ar  
    15     5     6 ar  
    16     5    19 ar  
    17     5    37 1   
    18     6     7 ar  
    19     6    38 1   
    20     7    20 ar  
    21     7    22 ar  
    22     8    20 ar  
    23     8    21 ar  
    24     8    39 1   
    25     9    21 ar  
    26     9    22 ar  
    27     9    40 1   
    28    10    11 1   
    29    10    12 1   
    30    10    13 1   
    31    10    30 1   
    32    11    12 1   
    33    11    41 1   
    34    11    42 1   
    35    12    43 1   
    36    12    44 1   
    37    13    14 ar  
    38    13    27 ar  
    39    14    15 ar  
    40    14    45 1   
    41    15    25 1   
    42    15    26 ar  
    43    16    28 1   
    44    16    46 1   
    45    16    47 1   
    46    17    25 1   
    47    17    48 1   
    48    17    49 1   
    49    18    19 ar  
    50    18    20 ar  
    51    19    50 1   
    52    21    51 1   
    53    22    52 1   
    54    23    30 1   
    55    23    53 1   
    56    23    54 1   
    57    23    55 1   
    58    24    30 2   
    59    24    56 1   
    60    29    30 2   
@<TRIPOS>SUBSTRUCTURE
     1 XWY         1 TEMP              0 ****  ****    0 ROOT
