@<TRIPOS>MOLECULE
XWZ
   13    13     1     0     0
SMALL
No Charge or Current Charge


@<TRIPOS>ATOM
      1 C02        -19.0380    -5.2510   -25.2350 ca         1 XWZ       0.254000
      2 C03        -18.1320    -4.1490   -25.2280 ca         1 XWZ       0.280900
      3 C05        -16.2780    -5.5370   -25.3400 ca         1 XWZ       0.315900
      4 C06        -17.0940    -6.6870   -25.3530 ca         1 XWZ      -0.031900
      5 C08        -18.4930    -6.5450   -25.3000 ca         1 XWZ      -0.132000
      6 N01        -20.4140    -5.0950   -25.1820 nv         1 XWZ      -1.077000
      7 N04        -16.7790    -4.2790   -25.2790 nb         1 XWZ      -0.635000
      8 Br07       -16.3100    -8.4310   -25.4420 br         1 XWZ      -0.086100
      9 H1         -18.5080    -3.1280   -25.1790 h4         1 XWZ       0.020100
     10 H2         -15.1920    -5.6260   -25.3810 h4         1 XWZ       0.037100
     11 H3         -19.1370    -7.4200   -25.3090 ha         1 XWZ       0.132000
     12 H4         -21.0240    -5.9070   -25.0830 hn         1 XWZ       0.461000
     13 H5         -20.8280    -4.1740   -25.0330 hn         1 XWZ       0.461000
@<TRIPOS>BOND
     1     1     2 ar  
     2     1     5 ar  
     3     1     6 1   
     4     2     7 ar  
     5     2     9 1   
     6     3     4 ar  
     7     3     7 ar  
     8     3    10 1   
     9     4     5 ar  
    10     4     8 1   
    11     5    11 1   
    12     6    12 1   
    13     6    13 1   
@<TRIPOS>SUBSTRUCTURE
     1 XWZ         1 TEMP              0 ****  ****    0 ROOT
