@<TRIPOS>MOLECULE
XWZ
   13    13     1     0     0
SMALL
abcg2


@<TRIPOS>ATOM
      1 C02        -19.0450    -5.2700   -25.2690 ca         1 XWZ       0.254000
      2 C03        -18.1490    -4.1890   -25.2420 ca         1 XWZ       0.280900
      3 C05        -16.3020    -5.5380   -25.3280 ca         1 XWZ       0.315900
      4 C06        -17.1090    -6.6670   -25.3530 ca         1 XWZ      -0.031900
      5 C08        -18.4850    -6.5510   -25.3240 ca         1 XWZ      -0.132000
      6 N01        -20.3970    -5.0730   -25.2920 nv         1 XWZ      -1.077000
      7 N04        -16.8370    -4.3260   -25.2710 nb         1 XWZ      -0.635000
      8 BR07       -16.3110    -8.3730   -25.4220 br         1 XWZ      -0.086100
      9 H1         -18.5370    -3.1750   -25.1960 h4         1 XWZ       0.020100
     10 H2         -15.2210    -5.6110   -25.3500 h4         1 XWZ       0.037100
     11 H3         -19.1260    -7.4240   -25.3420 ha         1 XWZ       0.132000
     12 H4         -20.9760    -5.8460   -25.0040 hn         1 XWZ       0.461000
     13 H5         -20.7320    -4.1860   -24.9520 hn         1 XWZ       0.461000
@<TRIPOS>BOND
     1     1     2 ar  
     2     1     5 ar  
     3     1     6 1   
     4     2     7 ar  
     5     2     9 1   
     6     3     4 ar  
     7     3     7 ar  
     8     3    10 1   
     9     4     5 ar  
    10     4     8 1   
    11     5    11 1   
    12     6    12 1   
    13     6    13 1   
@<TRIPOS>SUBSTRUCTURE
     1 XWZ         1 TEMP              0 ****  ****    0 ROOT
