@<TRIPOS>MOLECULE
XX0
   35    36     1     0     0
SMALL
No Charge or Current Charge


@<TRIPOS>ATOM
      1 C1           5.1960     1.5050     1.0120 c3         1 XX0       0.013600
      2 C2           4.3220     0.5280     0.2090 c          1 XX0       0.604100
      3 O2           4.7610    -0.1310    -0.7290 o          1 XX0      -0.540100
      4 N3           3.0050     0.4710     0.6510 ns         1 XX0      -0.152000
      5 C4           1.8760    -0.2800     0.2140 ca         1 XX0      -0.034000
      6 C51          0.6600    -0.0800     0.8950 ca         1 XX0      -0.078000
      7 C52          1.9160    -1.2020    -0.8520 ca         1 XX0      -0.078000
      8 C62          0.7550    -1.9000    -1.2240 ca         1 XX0      -0.097000
      9 C7          -0.4570    -1.7010    -0.5440 ca         1 XX0       0.172000
     10 Cl7         -1.8570    -2.6010    -1.1320 cl         1 XX0      -0.168000
     11 C61         -0.5140    -0.7830     0.5320 ca         1 XX0      -0.251500
     12 S7          -2.0390    -0.4690     1.4670 sy         1 XX0       1.175600
     13 O71         -2.7640    -1.7390     1.5970 o          1 XX0      -0.529500
     14 O72         -1.7360     0.3530     2.6450 o          1 XX0      -0.529500
     15 N8          -2.9710     0.5250     0.4290 n3         1 XX0      -0.758500
     16 C91         -4.3660     0.0650     0.1530 c6         1 XX0       0.174800
     17 CA1         -5.1960     1.1510    -0.5900 c6         1 XX0       0.150600
     18 OB          -4.5070     1.5870    -1.7860 os         1 XX0      -0.442000
     19 CA2         -3.1950     2.1310    -1.5050 c6         1 XX0       0.150600
     20 C92         -2.3080     1.0680    -0.7970 c6         1 XX0       0.174800
     21 H1           4.7590     2.5080     0.9380 h1         1 XX0       0.083200
     22 H2           5.1960     1.1930     2.0630 h1         1 XX0       0.083200
     23 H4           2.8090     1.0800     1.4360 hn         1 XX0       0.157000
     24 H5           0.6320     0.6330     1.7180 ha         1 XX0       0.141000
     25 H6           2.8280    -1.3920    -1.4090 ha         1 XX0       0.158000
     26 H7           0.7940    -2.6010    -2.0530 ha         1 XX0       0.136000
     27 H8          -4.3550    -0.8500    -0.4590 h1         1 XX0       0.063950
     28 H9          -4.8860    -0.1810     1.0900 h1         1 XX0       0.063950
     29 H10         -6.1790     0.7460    -0.8680 h1         1 XX0       0.057950
     30 H11         -5.3570     2.0140     0.0710 h1         1 XX0       0.057950
     31 H12         -2.7240     2.4430    -2.4470 h1         1 XX0       0.057950
     32 H13         -3.2990     3.0180    -0.8640 h1         1 XX0       0.057950
     33 H14         -1.3470     1.5400    -0.5430 h1         1 XX0       0.063950
     34 H15         -2.0980     0.2650    -1.5170 h1         1 XX0       0.063950
     35 Cl1          6.9350     1.6070     0.4560 cl         1 XX0      -0.203000
@<TRIPOS>BOND
     1     1     2 1   
     2     1    21 1   
     3     1    22 1   
     4     1    35 1   
     5     2     3 2   
     6     2     4 1   
     7     4     5 1   
     8     4    23 1   
     9     5     6 ar  
    10     5     7 ar  
    11     6    11 ar  
    12     6    24 1   
    13     7     8 ar  
    14     7    25 1   
    15     8     9 ar  
    16     8    26 1   
    17     9    10 1   
    18     9    11 ar  
    19    11    12 1   
    20    12    13 2   
    21    12    14 2   
    22    12    15 1   
    23    15    16 1   
    24    15    20 1   
    25    16    17 1   
    26    16    27 1   
    27    16    28 1   
    28    17    18 1   
    29    17    29 1   
    30    17    30 1   
    31    18    19 1   
    32    19    20 1   
    33    19    31 1   
    34    19    32 1   
    35    20    33 1   
    36    20    34 1   
@<TRIPOS>SUBSTRUCTURE
     1 XX0         1 TEMP              0 ****  ****    0 ROOT
