@<TRIPOS>MOLECULE
XX0
   35    36     1     0     0
SMALL
bcc


@<TRIPOS>ATOM
      1 C1           5.0770     1.4230     0.7110 c3         1 XX0      -0.063000
      2 C2           4.2050     0.3370     0.1000 c          1 XX0       0.671100
      3 O2           4.6140    -0.4780    -0.6960 o          1 XX0      -0.540100
      4 N3           2.9260     0.4120     0.5520 ns         1 XX0      -0.478100
      5 C4           1.8350    -0.3860     0.2160 ca         1 XX0       0.058600
      6 C51          0.6200    -0.0700     0.8230 ca         1 XX0      -0.096000
      7 C52          1.8810    -1.4640    -0.6660 ca         1 XX0      -0.096000
      8 C62          0.7330    -2.1960    -0.9190 ca         1 XX0      -0.115000
      9 C7          -0.4720    -1.8800    -0.3160 ca         1 XX0       0.080400
     10 CL7         -1.8450    -2.8540    -0.6900 cl         1 XX0      -0.076400
     11 C61         -0.5270    -0.8030     0.5650 ca         1 XX0      -0.251500
     12 S7          -2.0290    -0.2720     1.3830 sy         1 XX0       1.317200
     13 O71         -2.7700    -1.4320     1.8410 o          1 XX0      -0.600300
     14 O72         -1.6110     0.7230     2.3560 o          1 XX0      -0.600300
     15 N8          -2.9320     0.5020     0.2580 n3         1 XX0      -0.758500
     16 C91         -3.9660    -0.1740    -0.5220 c6         1 XX0       0.174800
     17 CA1         -5.0100     0.8630    -0.8950 c6         1 XX0       0.127400
     18 OB          -4.4380     1.9400    -1.6030 os         1 XX0      -0.395600
     19 CA2         -3.4530     2.5910    -0.8360 c6         1 XX0       0.127400
     20 C92         -2.3370     1.6430    -0.4350 c6         1 XX0       0.174800
     21 H1           4.7340     2.4030     0.3780 h1         1 XX0       0.083200
     22 H2           5.0150     1.3950     1.7980 h1         1 XX0       0.083200
     23 H4           2.7300     1.1380     1.2270 hn         1 XX0       0.323500
     24 H5           0.5760     0.7610     1.5130 ha         1 XX0       0.159000
     25 H6           2.7960    -1.7490    -1.1590 ha         1 XX0       0.176000
     26 H7           0.7840    -3.0320    -1.6030 ha         1 XX0       0.154000
     27 H8          -3.5470    -0.6220    -1.4280 h1         1 XX0       0.063950
     28 H9          -4.4320    -0.9590     0.0690 h1         1 XX0       0.063950
     29 H10         -5.7580     0.4050    -1.5440 h1         1 XX0       0.057950
     30 H11         -5.5130     1.2190     0.0140 h1         1 XX0       0.057950
     31 H12         -3.0430     3.3990    -1.4420 h1         1 XX0       0.057950
     32 H13         -3.8920     3.0300     0.0700 h1         1 XX0       0.057950
     33 H14         -1.6460     2.1720     0.2190 h1         1 XX0       0.063950
     34 H15         -1.7850     1.3060    -1.3210 h1         1 XX0       0.063950
     35 CL1          6.7700     1.2310     0.2380 cl         1 XX0      -0.126400
@<TRIPOS>BOND
     1     1     2 1   
     2     1    21 1   
     3     1    22 1   
     4     1    35 1   
     5     2     3 2   
     6     2     4 1   
     7     4     5 1   
     8     4    23 1   
     9     5     6 ar  
    10     5     7 ar  
    11     6    11 ar  
    12     6    24 1   
    13     7     8 ar  
    14     7    25 1   
    15     8     9 ar  
    16     8    26 1   
    17     9    10 1   
    18     9    11 ar  
    19    11    12 1   
    20    12    13 2   
    21    12    14 2   
    22    12    15 1   
    23    15    16 1   
    24    15    20 1   
    25    16    17 1   
    26    16    27 1   
    27    16    28 1   
    28    17    18 1   
    29    17    29 1   
    30    17    30 1   
    31    18    19 1   
    32    19    20 1   
    33    19    31 1   
    34    19    32 1   
    35    20    33 1   
    36    20    34 1   
@<TRIPOS>SUBSTRUCTURE
     1 XX0         1 TEMP              0 ****  ****    0 ROOT
