@<TRIPOS>MOLECULE
XX1
   34    35     1     0     0
SMALL
bcc


@<TRIPOS>ATOM
      1 O          -20.1990    -9.1820    19.4490 o          1 XX1      -0.838800
      2 C          -19.5640    -9.3860    18.3930 c          1 XX1       0.901600
      3 CA         -20.2200    -8.8450    17.0960 c3         1 XX1       0.010500
      4 N          -19.3400    -8.7780    15.9340 n8         1 XX1      -0.889800
      5 CB         -21.4670    -9.6760    16.7720 c3         1 XX1      -0.037400
      6 CG         -21.1780   -11.1300    16.4160 c3         1 XX1      -0.077400
      7 CD         -22.4510   -11.8980    16.0760 c3         1 XX1      -0.095400
      8 CE         -22.2200   -13.3630    15.7380 c3         1 XX1       0.232800
      9 NZ         -21.4210   -13.4930    14.5380 nu         1 XX1      -0.868900
     10 C6         -20.9200   -14.6250    14.0300 ca         1 XX1       0.759200
     11 C5         -21.1110   -15.9180    14.5500 ca         1 XX1      -0.388800
     12 N7         -21.7920   -16.4860    15.6000 na         1 XX1      -0.236300
     13 C8         -21.5680   -17.8110    15.5330 cc         1 XX1       0.418700
     14 N1         -20.1690   -14.5260    12.9270 nb         1 XX1      -0.817000
     15 C2         -19.6390   -15.6220    12.3910 ca         1 XX1       0.681900
     16 N3         -19.7480   -16.8680    12.8000 nb         1 XX1      -0.707000
     17 C4         -20.5050   -16.9940    13.8980 ca         1 XX1       0.580300
     18 N9         -20.8020   -18.1630    14.5310 nd         1 XX1      -0.657700
     19 OXT        -18.4850   -10.0020    18.2770 o          1 XX1      -0.838800
     20 HA         -20.5670    -7.8270    17.3020 h1         1 XX1       0.037700
     21 H          -18.6810    -8.0210    16.0760 hn         1 XX1       0.327300
     22 H2         -18.7600    -9.6090    15.9450 hn         1 XX1       0.327300
     23 HB2        -22.1470    -9.6380    17.6270 hc         1 XX1       0.024200
     24 HB3        -21.9940    -9.2070    15.9340 hc         1 XX1       0.024200
     25 HG2        -20.4870   -11.1650    15.5700 hc         1 XX1       0.056200
     26 HG3        -20.6720   -11.6320    17.2470 hc         1 XX1       0.056200
     27 HD2        -23.1370   -11.8610    16.9260 hc         1 XX1       0.042200
     28 HD3        -22.9720   -11.4140    15.2430 hc         1 XX1       0.042200
     29 HE2        -21.7090   -13.8400    16.5800 h1         1 XX1       0.029700
     30 HE3        -23.1870   -13.8600    15.6100 h1         1 XX1       0.029700
     31 HZ         -21.2230   -12.6600    14.0040 hn         1 XX1       0.464800
     32 HN7        -22.3530   -16.0290    16.3020 hn         1 XX1       0.309700
     33 H8         -22.0000   -18.4880    16.2550 h5         1 XX1       0.057800
     34 HC2        -19.0390   -15.4550    11.5020 h5         1 XX1       0.040100
@<TRIPOS>BOND
     1     1     2 1   
     2     2     3 1   
     3     2    19 1   
     4     3     4 1   
     5     3     5 1   
     6     3    20 1   
     7     4    21 1   
     8     4    22 1   
     9     5     6 1   
    10     5    23 1   
    11     5    24 1   
    12     6     7 1   
    13     6    25 1   
    14     6    26 1   
    15     7     8 1   
    16     7    27 1   
    17     7    28 1   
    18     8     9 1   
    19     8    29 1   
    20     8    30 1   
    21     9    10 1   
    22     9    31 1   
    23    10    11 ar  
    24    10    14 ar  
    25    11    12 1   
    26    11    17 ar  
    27    12    13 1   
    28    12    32 1   
    29    13    18 2   
    30    13    33 1   
    31    14    15 ar  
    32    15    16 ar  
    33    15    34 1   
    34    16    17 ar  
    35    17    18 1   
@<TRIPOS>SUBSTRUCTURE
     1 XX1         1 TEMP              0 ****  ****    0 ROOT
