@<TRIPOS>MOLECULE
XX1
   34    35     1     0     0
SMALL
No Charge or Current Charge


@<TRIPOS>ATOM
      1 O          -20.3360    -8.7560    19.6230 o          1 XX1      -0.838800
      2 C          -19.7790    -9.2450    18.6450 c          1 XX1       0.901600
      3 CA         -20.2380    -8.7730    17.1950 c3         1 XX1       0.010500
      4 N          -19.1740    -8.6710    16.1230 n8         1 XX1      -0.889800
      5 CB         -21.4470    -9.6070    16.6880 c3         1 XX1      -0.037400
      6 CG         -21.1520   -11.1050    16.4220 c3         1 XX1      -0.077400
      7 CD         -22.3980   -11.8850    15.9340 c3         1 XX1      -0.095400
      8 CE         -22.1470   -13.3890    15.6950 c3         1 XX1       0.232800
      9 NZ         -21.2770   -13.5960    14.5390 nu         1 XX1      -0.868900
     10 C6         -20.9170   -14.7720    13.9570 ca         1 XX1       0.759200
     11 C5         -21.0550   -16.0350    14.5080 ca         1 XX1      -0.388800
     12 N7         -21.5470   -16.4990    15.7020 na         1 XX1      -0.236300
     13 C8         -21.4100   -17.8810    15.6640 cc         1 XX1       0.418700
     14 N1         -20.3860   -14.5920    12.7620 nb         1 XX1      -0.817000
     15 C2         -20.0000   -15.7140    12.1240 ca         1 XX1       0.681900
     16 N3         -20.1020   -16.9740    12.5860 nb         1 XX1      -0.707000
     17 C4         -20.6380   -17.1020    13.7940 ca         1 XX1       0.580300
     18 N9         -20.8530   -18.2760    14.5010 nd         1 XX1      -0.657700
     19 OXT        -18.7960    -9.9730    18.7510 o          1 XX1      -0.838800
     20 HA         -20.6110    -7.7490    17.3330 h1         1 XX1       0.037700
     21 H          -18.4320    -8.0420    16.4480 hn         1 XX1       0.327300
     22 H2         -18.7050    -9.5800    16.0470 hn         1 XX1       0.327300
     23 HB2        -22.2560    -9.5300    17.4250 hc         1 XX1       0.024200
     24 HB3        -21.8300    -9.1510    15.7660 hc         1 XX1       0.024200
     25 HG2        -20.3550   -11.1910    15.6750 hc         1 XX1       0.056200
     26 HG3        -20.7790   -11.5730    17.3420 hc         1 XX1       0.056200
     27 HD2        -23.1880   -11.7890    16.6880 hc         1 XX1       0.042200
     28 HD3        -22.7870   -11.4290    15.0150 hc         1 XX1       0.042200
     29 HE2        -21.6990   -13.8300    16.5950 h1         1 XX1       0.029700
     30 HE3        -23.1120   -13.8820    15.5160 h1         1 XX1       0.029700
     31 HZ         -21.1090   -12.8100    13.9220 hn         1 XX1       0.464800
     32 HN7        -21.9320   -15.9640    16.4710 hn         1 XX1       0.309700
     33 H8         -21.7200   -18.5200    16.4830 h5         1 XX1       0.057800
     34 HC2        -19.5600   -15.5890    11.1350 h5         1 XX1       0.040100
@<TRIPOS>BOND
     1     1     2 1   
     2     2     3 1   
     3     2    19 1   
     4     3     4 1   
     5     3     5 1   
     6     3    20 1   
     7     4    21 1   
     8     4    22 1   
     9     5     6 1   
    10     5    23 1   
    11     5    24 1   
    12     6     7 1   
    13     6    25 1   
    14     6    26 1   
    15     7     8 1   
    16     7    27 1   
    17     7    28 1   
    18     8     9 1   
    19     8    29 1   
    20     8    30 1   
    21     9    10 1   
    22     9    31 1   
    23    10    11 ar  
    24    10    14 ar  
    25    11    12 1   
    26    11    17 ar  
    27    12    13 1   
    28    12    32 1   
    29    13    18 2   
    30    13    33 1   
    31    14    15 ar  
    32    15    16 ar  
    33    15    34 1   
    34    16    17 ar  
    35    17    18 1   
@<TRIPOS>SUBSTRUCTURE
     1 XX1         1 TEMP              0 ****  ****    0 ROOT
