@<TRIPOS>MOLECULE
XX3
   18    18     1     0     0
SMALL
No Charge or Current Charge


@<TRIPOS>ATOM
      1 O8           0.2450    -2.5420    -3.3360 oh         1 XX3      -0.611000
      2 C2           0.4960    -1.1330    -3.2700 c6         1 XX3       0.315200
      3 O12         -0.0330    -0.6050    -4.5110 os         1 XX3      -0.238000
      4 O13          0.2380     0.8480    -4.6230 oh         1 XX3      -0.431000
      5 C1          -0.2510    -0.5500    -2.0070 c          1 XX3       0.560300
      6 O7          -1.4020    -0.1250    -2.0340 o          1 XX3      -0.456100
      7 C6           0.5720    -0.4750    -0.7680 ce         1 XX3      -0.270200
      8 C5           1.9280    -0.6020    -0.7820 cf         1 XX3      -0.102000
      9 C3           2.0100    -0.9600    -3.1950 c2         1 XX3      -0.152200
     10 C4           2.6920    -0.7590    -2.0310 cf         1 XX3      -0.133100
     11 N9           4.1830    -0.6490    -1.9430 no         1 XX3       0.671100
     12 O10          4.7050    -0.4360    -0.8410 o          1 XX3      -0.384500
     13 O11          4.8320    -0.7750    -2.9890 o          1 XX3      -0.384500
     14 HO8          0.5120    -2.8140    -4.2400 ho         1 XX3       0.473000
     15 HO13        -0.6550     1.2270    -4.4470 ho         1 XX3       0.464000
     16 H6           0.0410    -0.2640     0.1590 ha         1 XX3       0.220000
     17 H5           2.4680    -0.5130     0.1670 ha         1 XX3       0.225000
     18 H31          2.5420    -1.0470    -4.1420 ha         1 XX3       0.234000
@<TRIPOS>BOND
     1     1     2 1   
     2     1    14 1   
     3     2     3 1   
     4     2     5 1   
     5     2     9 1   
     6     3     4 1   
     7     4    15 1   
     8     5     6 2   
     9     5     7 1   
    10     7     8 2   
    11     7    16 1   
    12     8    10 1   
    13     8    17 1   
    14     9    10 2   
    15     9    18 1   
    16    10    11 1   
    17    11    12 1   
    18    11    13 1   
@<TRIPOS>SUBSTRUCTURE
     1 XX3         1 TEMP              0 ****  ****    0 ROOT
