@<TRIPOS>MOLECULE
XX3
   18    18     1     0     0
SMALL
bcc


@<TRIPOS>ATOM
      1 O8           0.1320    -2.4630    -3.4950 oh         1 XX3      -0.548800
      2 C2           0.5180    -1.1600    -3.3060 c6         1 XX3       0.268800
      3 O12          0.0570    -0.4240    -4.4180 os         1 XX3      -0.214800
      4 O13          0.4080     0.9220    -4.1790 oh         1 XX3      -0.392000
      5 C1          -0.2330    -0.6950    -2.0350 c          1 XX3       0.560300
      6 O7          -1.4380    -0.6290    -2.0730 o          1 XX3      -0.456100
      7 C6           0.5500    -0.3830    -0.8460 ce         1 XX3      -0.220200
      8 C5           1.8890    -0.3890    -0.8720 cf         1 XX3      -0.052000
      9 C3           2.0180    -1.0560    -3.2250 c2         1 XX3      -0.102200
     10 C4           2.6150    -0.7270    -2.0840 cf         1 XX3      -0.133100
     11 N9           4.0770    -0.6990    -2.0320 no         1 XX3       0.291100
     12 O10          4.5870    -0.4800    -0.9600 o          1 XX3      -0.194500
     13 O11          4.6880    -0.8960    -3.0520 o          1 XX3      -0.194500
     14 HO8          0.6750    -2.8910    -4.1720 ho         1 XX3       0.434000
     15 HO13        -0.4550     1.3360    -4.0340 ho         1 XX3       0.425000
     16 H6           0.0170    -0.1100     0.0550 ha         1 XX3       0.170000
     17 H5           2.4420    -0.1290     0.0180 ha         1 XX3       0.175000
     18 H31          2.5760    -1.2990    -4.1220 ha         1 XX3       0.184000
@<TRIPOS>BOND
     1     1     2 1   
     2     1    14 1   
     3     2     3 1   
     4     2     5 1   
     5     2     9 1   
     6     3     4 1   
     7     4    15 1   
     8     5     6 2   
     9     5     7 1   
    10     7     8 2   
    11     7    16 1   
    12     8    10 1   
    13     8    17 1   
    14     9    10 2   
    15     9    18 1   
    16    10    11 1   
    17    11    12 1   
    18    11    13 1   
@<TRIPOS>SUBSTRUCTURE
     1 XX3         1 TEMP              0 ****  ****    0 ROOT
