@<TRIPOS>MOLECULE
XX4
   61    64     1     0     0
SMALL
bcc


@<TRIPOS>ATOM
      1 C01          4.5930     0.3210     1.8120 c3         1 XX4       0.085300
      2 N02          4.7000    -0.2130     0.4660 n          1 XX4      -0.471800
      3 C03          3.6710    -0.1450    -0.4040 c          1 XX4       0.670100
      4 O04          3.7340    -0.5680    -1.5540 o          1 XX4      -0.606100
      5 C05          2.3930     0.4920     0.1060 c3         1 XX4      -0.194400
      6 C06          1.3420     0.6120    -0.9950 c3         1 XX4       0.225800
      7 N07          0.1250     1.2590    -0.5450 nh         1 XX4      -0.792600
      8 C08         -0.8000     0.4580     0.2420 c6         1 XX4       0.287100
      9 C09         -2.1760     1.0420     0.1520 ca         1 XX4      -0.203300
     10 C10         -3.3190     0.2820     0.2890 ca         1 XX4      -0.046000
     11 C11         -4.5840     0.8780     0.3030 ca         1 XX4      -0.212600
     12 C12         -5.8190     0.1040     0.5160 c          1 XX4       0.599300
     13 O13         -6.8220     0.6270     0.9730 o          1 XX4      -0.530100
     14 C14         -5.8470    -1.3440     0.1620 ca         1 XX4      -0.163600
     15 C15         -6.5940    -2.2170     0.9540 ca         1 XX4      -0.088500
     16 C16         -6.6830    -3.5600     0.6240 ca         1 XX4      -0.141500
     17 C17         -6.0520    -4.0400    -0.5180 ca         1 XX4      -0.110000
     18 C18         -5.3280    -3.1730    -1.3250 ca         1 XX4      -0.141500
     19 C19         -5.2180    -1.8320    -0.9820 ca         1 XX4      -0.088500
     20 C20         -4.6620     2.2720     0.1810 ca         1 XX4      -0.048000
     21 C21         -3.5270     3.0320     0.0050 ca         1 XX4      -0.157000
     22 C22         -2.2570     2.4330    -0.0210 ca         1 XX4       0.244400
     23 N23         -1.1510     3.2100    -0.2210 ne         1 XX4      -0.748100
     24 C24         -0.0340     2.6020    -0.5410 c2         1 XX4       0.874100
     25 N25          0.9870     3.3720    -0.9770 nv         1 XX4      -0.928800
     26 C26          5.9960    -0.7260     0.0270 c6         1 XX4       0.102700
     27 C27          7.0790     0.3520     0.0820 c6         1 XX4      -0.085400
     28 C28          8.4060    -0.1870    -0.4440 c6         1 XX4      -0.072900
     29 C29          8.8350    -1.4390     0.3130 c6         1 XX4      -0.077400
     30 C30          7.7490    -2.5090     0.2680 c6         1 XX4      -0.072900
     31 C31          6.4180    -1.9790     0.7940 c6         1 XX4      -0.085400
     32 H011         4.5430     1.4110     1.8250 h1         1 XX4       0.039700
     33 H012         3.7190    -0.0710     2.3330 h1         1 XX4       0.039700
     34 H013         5.4650     0.0260     2.3890 h1         1 XX4       0.039700
     35 H051         1.9990    -0.1010     0.9380 hc         1 XX4       0.061700
     36 H052         2.6150     1.4760     0.5320 hc         1 XX4       0.061700
     37 H061         1.7350     1.1480    -1.8580 h1         1 XX4       0.077200
     38 H062         1.0660    -0.3790    -1.3570 h1         1 XX4       0.077200
     39 H081        -0.7850    -0.5610    -0.1470 h1         1 XX4       0.043200
     40 H082        -0.4720     0.4030     1.2880 h1         1 XX4       0.043200
     41 H10         -3.2200    -0.7880     0.4250 ha         1 XX4       0.131000
     42 H15         -7.0930    -1.8470     1.8400 ha         1 XX4       0.142500
     43 H16         -7.2500    -4.2320     1.2540 ha         1 XX4       0.133000
     44 H17         -6.1300    -5.0870    -0.7800 ha         1 XX4       0.130000
     45 H18         -4.8480    -3.5380    -2.2230 ha         1 XX4       0.133000
     46 H19         -4.6580    -1.1640    -1.6240 ha         1 XX4       0.142500
     47 H20         -5.6290     2.7590     0.1970 ha         1 XX4       0.147000
     48 H21         -3.6000     4.1050    -0.1210 ha         1 XX4       0.147000
     49 H251         1.9440     3.0790    -0.8810 hn         1 XX4       0.433300
     50 H252         0.8390     4.3650    -0.9100 hn         1 XX4       0.433300
     51 H26          5.8680    -1.0120    -1.0170 h1         1 XX4       0.089700
     52 H271         6.7590     1.2190    -0.5020 hc         1 XX4       0.043200
     53 H272         7.2180     0.6990     1.1120 hc         1 XX4       0.043200
     54 H281         8.3080    -0.4220    -1.5090 hc         1 XX4       0.044200
     55 H282         9.1740     0.5860    -0.3680 hc         1 XX4       0.044200
     56 H291         9.7680    -1.8290    -0.1000 hc         1 XX4       0.041200
     57 H292         9.0430    -1.1780     1.3560 hc         1 XX4       0.041200
     58 H301         7.6210    -2.8520    -0.7650 hc         1 XX4       0.044200
     59 H302         8.0530    -3.3840     0.8460 hc         1 XX4       0.044200
     60 H311         6.5210    -1.7570     1.8620 hc         1 XX4       0.043200
     61 H312         5.6400    -2.7410     0.7050 hc         1 XX4       0.043200
@<TRIPOS>BOND
     1     1     2 1   
     2     1    32 1   
     3     1    33 1   
     4     1    34 1   
     5     2     3 1   
     6     2    26 1   
     7     3     4 2   
     8     3     5 1   
     9     5     6 1   
    10     5    35 1   
    11     5    36 1   
    12     6     7 1   
    13     6    37 1   
    14     6    38 1   
    15     7     8 1   
    16     7    24 1   
    17     8     9 1   
    18     8    39 1   
    19     8    40 1   
    20     9    10 ar  
    21     9    22 ar  
    22    10    11 ar  
    23    10    41 1   
    24    11    12 1   
    25    11    20 ar  
    26    12    13 2   
    27    12    14 1   
    28    14    15 ar  
    29    14    19 ar  
    30    15    16 ar  
    31    15    42 1   
    32    16    17 ar  
    33    16    43 1   
    34    17    18 ar  
    35    17    44 1   
    36    18    19 ar  
    37    18    45 1   
    38    19    46 1   
    39    20    21 ar  
    40    20    47 1   
    41    21    22 ar  
    42    21    48 1   
    43    22    23 1   
    44    23    24 2   
    45    24    25 1   
    46    25    49 1   
    47    25    50 1   
    48    26    27 1   
    49    26    31 1   
    50    26    51 1   
    51    27    28 1   
    52    27    52 1   
    53    27    53 1   
    54    28    29 1   
    55    28    54 1   
    56    28    55 1   
    57    29    30 1   
    58    29    56 1   
    59    29    57 1   
    60    30    31 1   
    61    30    58 1   
    62    30    59 1   
    63    31    60 1   
    64    31    61 1   
@<TRIPOS>SUBSTRUCTURE
     1 XX4         1 TEMP              0 ****  ****    0 ROOT
