@<TRIPOS>MOLECULE
XX4
   61    64     1     0     0
SMALL
No Charge or Current Charge


@<TRIPOS>ATOM
      1 C01          4.7840     0.4070     1.8550 c3         1 XX4       0.085300
      2 N02          4.7910    -0.0750     0.4490 n          1 XX4      -0.404800
      3 C03          3.6510     0.1060    -0.3770 c          1 XX4       0.603100
      4 O04          3.6370    -0.3110    -1.5280 o          1 XX4      -0.606100
      5 C05          2.4280     0.8420     0.1960 c3         1 XX4      -0.194400
      6 C06          1.2590     0.9920    -0.7920 c3         1 XX4       0.225800
      7 N07          0.0930     1.6790    -0.1960 nh         1 XX4      -0.792600
      8 C08         -0.8960     0.8480     0.5200 c6         1 XX4       0.287100
      9 C09         -2.3140     1.3060     0.1970 ca         1 XX4      -0.203300
     10 C10         -3.4130     0.4470     0.3840 ca         1 XX4      -0.028000
     11 C11         -4.7220     0.8940     0.0990 ca         1 XX4      -0.212600
     12 C12         -5.9160    -0.0080     0.3040 c          1 XX4       0.599300
     13 O13         -6.9960     0.4630     0.6450 o          1 XX4      -0.530100
     14 C14         -5.7660    -1.4970     0.0830 ca         1 XX4      -0.163600
     15 C15         -6.5510    -2.4020     0.8290 ca         1 XX4      -0.070500
     16 C16         -6.4310    -3.7880     0.6250 ca         1 XX4      -0.123500
     17 C17         -5.5340    -4.2850    -0.3330 ca         1 XX4      -0.092000
     18 C18         -4.7610    -3.3930    -1.0940 ca         1 XX4      -0.123500
     19 C19         -4.8780    -2.0070    -0.8930 ca         1 XX4      -0.070500
     20 C20         -4.9140     2.2230    -0.3390 ca         1 XX4      -0.030000
     21 C21         -3.8120     3.0770    -0.5210 ca         1 XX4      -0.139000
     22 C22         -2.5140     2.6180    -0.2600 ca         1 XX4       0.244400
     23 N23         -1.4070     3.4620    -0.4470 ne         1 XX4      -0.748100
     24 C24         -0.2320     2.9700    -0.4580 c2         1 XX4       0.874100
     25 N25          0.7740     3.8230    -0.4740 nv         1 XX4      -1.039200
     26 C26          6.0130    -0.7720    -0.0540 c6         1 XX4       0.102700
     27 C27          7.2670     0.1450    -0.0290 c6         1 XX4      -0.085400
     28 C28          8.5050    -0.5870    -0.6050 c6         1 XX4      -0.072900
     29 C29          8.7690    -1.9160     0.1470 c6         1 XX4      -0.077400
     30 C30          7.5200    -2.8330     0.1250 c6         1 XX4      -0.072900
     31 C31          6.2800    -2.1040     0.7010 c6         1 XX4      -0.085400
     32 H011         4.6580     1.4970     1.8760 h1         1 XX4       0.039700
     33 H012         3.9630    -0.0660     2.4090 h1         1 XX4       0.039700
     34 H013         5.7240     0.1610     2.3630 h1         1 XX4       0.039700
     35 H051         2.1140     0.3260     1.1090 hc         1 XX4       0.061700
     36 H052         2.7600     1.8080     0.5870 hc         1 XX4       0.061700
     37 H061         1.6000     1.5290    -1.6900 h1         1 XX4       0.077200
     38 H062         0.9640    -0.0120    -1.1290 h1         1 XX4       0.077200
     39 H081        -0.7780    -0.2170     0.2750 h1         1 XX4       0.043200
     40 H082        -0.7440     0.9540     1.6040 h1         1 XX4       0.043200
     41 H10         -3.2450    -0.5590     0.7630 ha         1 XX4       0.113000
     42 H15         -7.2520    -2.0330     1.5760 ha         1 XX4       0.124500
     43 H16         -7.0360    -4.4770     1.2110 ha         1 XX4       0.115000
     44 H17         -5.4430    -5.3570    -0.4910 ha         1 XX4       0.112000
     45 H18         -4.0730    -3.7760    -1.8450 ha         1 XX4       0.115000
     46 H19         -4.2840    -1.3320    -1.5070 ha         1 XX4       0.124500
     47 H20         -5.9160     2.5930    -0.5490 ha         1 XX4       0.129000
     48 H21         -3.9670     4.0950    -0.8670 ha         1 XX4       0.129000
     49 H251         1.4850     3.5050     0.1620 hn         1 XX4       0.488500
     50 H252         0.4250     4.7470    -0.2720 hn         1 XX4       0.488500
     51 H26          5.8570    -1.0440    -1.1080 h1         1 XX4       0.089700
     52 H271         7.0730     1.0550    -0.6130 hc         1 XX4       0.043200
     53 H272         7.4880     0.4730     0.9960 hc         1 XX4       0.043200
     54 H281         8.3510    -0.7910    -1.6740 hc         1 XX4       0.044200
     55 H282         9.3880     0.0620    -0.5350 hc         1 XX4       0.044200
     56 H291         9.6220    -2.4380    -0.3080 hc         1 XX4       0.041200
     57 H292         9.0530    -1.7030     1.1870 hc         1 XX4       0.041200
     58 H301         7.3150    -3.1540    -0.9060 hc         1 XX4       0.044200
     59 H302         7.7170    -3.7460     0.7030 hc         1 XX4       0.044200
     60 H311         6.4360    -1.9160     1.7720 hc         1 XX4       0.043200
     61 H312         5.4000    -2.7570     0.6230 hc         1 XX4       0.043200
@<TRIPOS>BOND
     1     1     2 1   
     2     1    32 1   
     3     1    33 1   
     4     1    34 1   
     5     2     3 1   
     6     2    26 1   
     7     3     4 2   
     8     3     5 1   
     9     5     6 1   
    10     5    35 1   
    11     5    36 1   
    12     6     7 1   
    13     6    37 1   
    14     6    38 1   
    15     7     8 1   
    16     7    24 1   
    17     8     9 1   
    18     8    39 1   
    19     8    40 1   
    20     9    10 ar  
    21     9    22 ar  
    22    10    11 ar  
    23    10    41 1   
    24    11    12 1   
    25    11    20 ar  
    26    12    13 2   
    27    12    14 1   
    28    14    15 ar  
    29    14    19 ar  
    30    15    16 ar  
    31    15    42 1   
    32    16    17 ar  
    33    16    43 1   
    34    17    18 ar  
    35    17    44 1   
    36    18    19 ar  
    37    18    45 1   
    38    19    46 1   
    39    20    21 ar  
    40    20    47 1   
    41    21    22 ar  
    42    21    48 1   
    43    22    23 1   
    44    23    24 2   
    45    24    25 1   
    46    25    49 1   
    47    25    50 1   
    48    26    27 1   
    49    26    31 1   
    50    26    51 1   
    51    27    28 1   
    52    27    52 1   
    53    27    53 1   
    54    28    29 1   
    55    28    54 1   
    56    28    55 1   
    57    29    30 1   
    58    29    56 1   
    59    29    57 1   
    60    30    31 1   
    61    30    58 1   
    62    30    59 1   
    63    31    60 1   
    64    31    61 1   
@<TRIPOS>SUBSTRUCTURE
     1 XX4         1 TEMP              0 ****  ****    0 ROOT
