@<TRIPOS>MOLECULE
XX5
   49    50     1     0     0
SMALL
No Charge or Current Charge


@<TRIPOS>ATOM
      1 O1           4.5710    -0.6450     3.4540 o          1 XX5      -0.764500
      2 C2           4.1110    -1.3230     4.3660 c          1 XX5       0.703000
      3 O3           4.7430    -1.5740     5.3840 o          1 XX5      -0.764500
      4 C4           2.6180    -1.8380     4.2580 c3         1 XX5       0.040500
      5 C5           2.5520    -3.0540     3.2850 c3         1 XX5      -0.047400
      6 C6           1.3880    -4.0710     3.4900 c3         1 XX5      -0.037700
      7 C7           1.4460    -4.7850     4.8610 c3         1 XX5      -0.085600
      8 C8          -0.0160    -3.4840     3.2170 c3         1 XX5      -0.085600
      9 N9           1.6290    -0.7780     3.8430 n7         1 XX5      -0.831400
     10 C10          1.3910     0.3230     4.8420 c3         1 XX5       0.044500
     11 C11          0.6890    -0.1220     6.1940 c          1 XX5       0.724000
     12 O12          1.3810    -0.2150     7.2010 o          1 XX5      -0.740500
     13 O13         -0.5170    -0.3450     6.2020 o          1 XX5      -0.740500
     14 C14          0.6180     1.4750     4.1510 c3         1 XX5      -0.006100
     15 C15          0.5390     2.7310     4.9850 cc         1 XX5      -0.111300
     16 C16         -0.5200     3.2120     5.7150 cd         1 XX5       0.203900
     17 N17         -0.1980     4.4110     6.3190 nd         1 XX5      -0.701000
     18 C18          1.0520     4.6620     5.9600 cc         1 XX5       0.346400
     19 N19          1.5450     3.6660     5.1440 na         1 XX5      -0.165500
     20 C20          2.8960     3.6300     4.5520 c3         1 XX5       0.108900
     21 C21          2.9150     3.8900     3.0490 ca         1 XX5      -0.079300
     22 C22          2.2140     4.9840     2.4970 ca         1 XX5      -0.077000
     23 C23          2.2300     5.2090     1.1110 ca         1 XX5       0.114000
     24 Cl24         1.3500     6.5740     0.4340 cl         1 XX5      -0.224500
     25 C25          2.9440     4.3490     0.2620 ca         1 XX5      -0.116000
     26 C26          3.6320     3.0310     2.1910 ca         1 XX5      -0.077000
     27 C27          3.6440     3.2610     0.8050 ca         1 XX5       0.114000
     28 Cl28         4.5380     2.1810    -0.2560 cl         1 XX5      -0.224500
     29 HC4          2.3680    -2.2030     5.2620 h1         1 XX5       0.079700
     30 HC51         2.5390    -2.6910     2.2490 hc         1 XX5       0.023200
     31 HC52         3.4890    -3.6160     3.3830 hc         1 XX5       0.023200
     32 HC6          1.5400    -4.8520     2.7340 hc         1 XX5      -0.015300
     33 HC71         2.4400    -5.2130     5.0350 hc         1 XX5       0.028867
     34 HC72         1.2180    -4.0940     5.6800 hc         1 XX5       0.028867
     35 HC73         0.7160    -5.6040     4.8980 hc         1 XX5       0.028867
     36 HC81        -0.3030    -2.7660     3.9940 hc         1 XX5       0.028867
     37 HC82        -0.0420    -2.9750     2.2450 hc         1 XX5       0.028867
     38 HC83        -0.7690    -4.2810     3.2010 hc         1 XX5       0.028867
     39 HN9          2.0000    -0.3540     2.9860 hn         1 XX5       0.366000
     40 H10          2.3660     0.7330     5.1320 h1         1 XX5       0.031700
     41 H141         1.0970     1.7090     3.1930 hc         1 XX5       0.044700
     42 H142        -0.3950     1.1350     3.9020 hc         1 XX5       0.044700
     43 H16         -1.4990     2.7620     5.8350 h4         1 XX5       0.033100
     44 H18          1.6410     5.5260     6.2450 h5         1 XX5       0.024100
     45 H201         3.3490     2.6550     4.7700 h1         1 XX5       0.089700
     46 H202         3.5160     4.3870     5.0490 h1         1 XX5       0.089700
     47 H22          1.6540     5.6610     3.1380 ha         1 XX5       0.174000
     48 H25          2.9540     4.5250    -0.8090 ha         1 XX5       0.122000
     49 H26          4.1780     2.1790     2.5930 ha         1 XX5       0.174000
@<TRIPOS>BOND
     1     1     2 1   
     2     2     3 1   
     3     2     4 1   
     4     4     5 1   
     5     4     9 1   
     6     4    29 1   
     7     5     6 1   
     8     5    30 1   
     9     5    31 1   
    10     6     7 1   
    11     6     8 1   
    12     6    32 1   
    13     7    33 1   
    14     7    34 1   
    15     7    35 1   
    16     8    36 1   
    17     8    37 1   
    18     8    38 1   
    19     9    10 1   
    20     9    39 1   
    21    10    11 1   
    22    10    14 1   
    23    10    40 1   
    24    11    12 1   
    25    11    13 1   
    26    14    15 1   
    27    14    41 1   
    28    14    42 1   
    29    15    16 2   
    30    15    19 1   
    31    16    17 1   
    32    16    43 1   
    33    17    18 2   
    34    18    19 1   
    35    18    44 1   
    36    19    20 1   
    37    20    21 1   
    38    20    45 1   
    39    20    46 1   
    40    21    22 ar  
    41    21    26 ar  
    42    22    23 ar  
    43    22    47 1   
    44    23    24 1   
    45    23    25 ar  
    46    25    27 ar  
    47    25    48 1   
    48    26    27 ar  
    49    26    49 1   
    50    27    28 1   
@<TRIPOS>SUBSTRUCTURE
     1 XX5         1 TEMP              0 ****  ****    0 ROOT
