@<TRIPOS>MOLECULE
XX5
   49    50     1     0     0
SMALL
abcg2


@<TRIPOS>ATOM
      1 O1           4.4620    -0.0150     3.9800 o          1 XX5      -0.764500
      2 C2           4.1970    -1.0340     4.6550 c          1 XX5       0.703000
      3 O3           4.9890    -1.6370     5.4090 o          1 XX5      -0.764500
      4 C4           2.7830    -1.6530     4.5030 c3         1 XX5       0.040500
      5 C5           2.8850    -2.8060     3.4970 c3         1 XX5      -0.047400
      6 C6           1.6200    -3.6450     3.2560 c3         1 XX5      -0.037700
      7 C7           0.9280    -4.0280     4.5600 c3         1 XX5      -0.085600
      8 C8           0.6350    -2.9910     2.2910 c3         1 XX5      -0.085600
      9 N9           1.7480    -0.7160     4.1180 n7         1 XX5      -0.831400
     10 C10          1.4880     0.3100     5.1090 c3         1 XX5       0.044500
     11 C11          0.8020    -0.2730     6.3680 c          1 XX5       0.724000
     12 O12          1.3990    -0.1140     7.4520 o          1 XX5      -0.740500
     13 O13         -0.2970    -0.8390     6.2080 o          1 XX5      -0.740500
     14 C14          0.5900     1.3790     4.4730 c3         1 XX5      -0.006100
     15 C15          0.5940     2.6670     5.2140 cc         1 XX5      -0.111300
     16 C16         -0.3430     3.2580     6.0150 cd         1 XX5       0.203900
     17 N17          0.1150     4.4500     6.5080 nd         1 XX5      -0.701000
     18 C18          1.3130     4.5860     6.0110 cc         1 XX5       0.346400
     19 N19          1.6580     3.5390     5.2240 na         1 XX5      -0.165500
     20 C20          2.9040     3.4100     4.4990 c3         1 XX5       0.108900
     21 C21          2.7180     3.4980     3.0050 ca         1 XX5      -0.079300
     22 C22          2.0930     4.6060     2.4420 ca         1 XX5      -0.077000
     23 C23          1.9350     4.6660     1.0690 ca         1 XX5       0.114000
     24 CL24         1.1590     6.0430     0.3640 cl         1 XX5      -0.224500
     25 C25          2.3820     3.6520     0.2350 ca         1 XX5      -0.116000
     26 C26          3.1750     2.4670     2.1940 ca         1 XX5      -0.077000
     27 C27          2.9990     2.5610     0.8220 ca         1 XX5       0.114000
     28 CL28         3.5520     1.2680    -0.1880 cl         1 XX5      -0.224500
     29 HC4          2.5080    -2.0770     5.4730 h1         1 XX5       0.079700
     30 HC51         3.2370    -2.4110     2.5360 hc         1 XX5       0.023200
     31 HC52         3.6750    -3.4730     3.8540 hc         1 XX5       0.023200
     32 HC6          1.9640    -4.5720     2.7810 hc         1 XX5      -0.015300
     33 HC71         1.6210    -4.5030     5.2590 hc         1 XX5       0.028867
     34 HC72         0.5040    -3.1490     5.0480 hc         1 XX5       0.028867
     35 HC73         0.1150    -4.7340     4.3760 hc         1 XX5       0.028867
     36 HC81         0.2390    -2.0710     2.7160 hc         1 XX5       0.028867
     37 HC82         1.1210    -2.7420     1.3440 hc         1 XX5       0.028867
     38 HC83        -0.1980    -3.6610     2.0680 hc         1 XX5       0.028867
     39 HN9          2.0570    -0.2620     3.2640 hn         1 XX5       0.366000
     40 H10          2.4180     0.7870     5.4480 h1         1 XX5       0.031700
     41 H141         0.9030     1.5510     3.4370 hc         1 XX5       0.044700
     42 H142        -0.4320     1.0020     4.4220 hc         1 XX5       0.044700
     43 H16         -1.3220     2.8750     6.2630 h4         1 XX5       0.033100
     44 H18          1.9860     5.4140     6.1810 h5         1 XX5       0.024100
     45 H201         3.3910     2.4680     4.7550 h1         1 XX5       0.089700
     46 H202         3.5610     4.2120     4.8390 h1         1 XX5       0.089700
     47 H22          1.7310     5.4130     3.0670 ha         1 XX5       0.174000
     48 H25          2.2480     3.7120    -0.8360 ha         1 XX5       0.122000
     49 H26          3.6330     1.5900     2.6420 ha         1 XX5       0.174000
@<TRIPOS>BOND
     1     1     2 1   
     2     2     3 1   
     3     2     4 1   
     4     4     5 1   
     5     4     9 1   
     6     4    29 1   
     7     5     6 1   
     8     5    30 1   
     9     5    31 1   
    10     6     7 1   
    11     6     8 1   
    12     6    32 1   
    13     7    33 1   
    14     7    34 1   
    15     7    35 1   
    16     8    36 1   
    17     8    37 1   
    18     8    38 1   
    19     9    10 1   
    20     9    39 1   
    21    10    11 1   
    22    10    14 1   
    23    10    40 1   
    24    11    12 1   
    25    11    13 1   
    26    14    15 1   
    27    14    41 1   
    28    14    42 1   
    29    15    16 2   
    30    15    19 1   
    31    16    17 1   
    32    16    43 1   
    33    17    18 2   
    34    18    19 1   
    35    18    44 1   
    36    19    20 1   
    37    20    21 1   
    38    20    45 1   
    39    20    46 1   
    40    21    22 ar  
    41    21    26 ar  
    42    22    23 ar  
    43    22    47 1   
    44    23    24 1   
    45    23    25 ar  
    46    25    27 ar  
    47    25    48 1   
    48    26    27 ar  
    49    26    49 1   
    50    27    28 1   
@<TRIPOS>SUBSTRUCTURE
     1 XX5         1 TEMP              0 ****  ****    0 ROOT
