@<TRIPOS>MOLECULE
XX6
   48    50     1     0     0
SMALL
No Charge or Current Charge


@<TRIPOS>ATOM
      1 O4           7.2980    -1.4300    -0.0390 oh         1 XX6      -0.618500
      2 C19          7.0420    -0.3430     0.8700 c3         1 XX6       0.172600
      3 C18          5.8550     0.5790     0.4240 c3         1 XX6       0.186500
      4 C20          6.2260     1.5520    -0.7520 c3         1 XX6       0.172600
      5 O3           6.3870     0.8880    -2.0200 oh         1 XX6      -0.618500
      6 N            4.6010    -0.2000     0.1780 n7         1 XX6      -0.830400
      7 C17          3.3420     0.5790     0.1430 c3         1 XX6       0.131800
      8 C16          2.1030    -0.3580     0.1120 c3         1 XX6       0.159300
      9 O2           2.1110    -1.2320     1.2640 oh         1 XX6      -0.639000
     10 C15          0.7770     0.4400     0.0670 c3         1 XX6       0.129600
     11 O1          -0.3170    -0.4990     0.0780 os         1 XX6      -0.331100
     12 C10         -1.6440    -0.1040     0.0390 ca         1 XX6       0.166100
     13 C5          -2.6550    -1.0920     0.0220 ca         1 XX6      -0.049000
     14 C6          -2.2960    -2.4610     0.0410 ca         1 XX6      -0.071000
     15 C1          -3.2790    -3.4590     0.0250 ca         1 XX6      -0.120000
     16 C2          -4.6310    -3.1030    -0.0110 ca         1 XX6      -0.096000
     17 C3          -5.0040    -1.7500    -0.0310 ca         1 XX6      -0.112000
     18 C4          -4.0280    -0.7180    -0.0160 ca         1 XX6       0.004000
     19 C7          -4.3780     0.6660    -0.0380 ca         1 XX6      -0.046000
     20 C11         -5.7220     1.1240    -0.0760 ca         1 XX6      -0.087000
     21 C12         -6.0190     2.4970    -0.0960 ca         1 XX6      -0.122000
     22 C13         -4.9870     3.4440    -0.0790 ca         1 XX6      -0.098000
     23 C14         -3.6550     3.0140    -0.0420 ca         1 XX6      -0.114000
     24 C8          -3.3470     1.6400    -0.0210 ca         1 XX6       0.006000
     25 C9          -1.9990     1.2560     0.0160 ca         1 XX6      -0.224000
     26 H4           8.0440    -1.9450     0.3370 ho         1 XX6       0.432000
     27 H191         6.8040    -0.7510     1.8620 h1         1 XX6       0.009950
     28 H192         7.9440     0.2710     0.9860 h1         1 XX6       0.009950
     29 H18          5.6700     1.2290     1.2900 h1         1 XX6       0.010700
     30 H201         5.4410     2.3150    -0.8370 h1         1 XX6       0.009950
     31 H202         7.1520     2.0800    -0.4890 h1         1 XX6       0.009950
     32 H            4.5000    -0.8840     0.9370 hn         1 XX6       0.423000
     33 H3           6.5690     1.5860    -2.6850 ho         1 XX6       0.432000
     34 H171         3.2700     1.2220     1.0320 h1         1 XX6       0.028700
     35 H172         3.3200     1.2320    -0.7400 h1         1 XX6       0.028700
     36 H16          2.1590    -0.9510    -0.8120 h1         1 XX6       0.109700
     37 H2           1.2030    -1.6010     1.3290 ho         1 XX6       0.432000
     38 H151         0.7240     1.1090     0.9360 h1         1 XX6       0.038700
     39 H152         0.7530     1.0500    -0.8460 h1         1 XX6       0.038700
     40 H9          -1.2390     2.0310     0.0290 ha         1 XX6       0.115000
     41 H6          -1.2530    -2.7640     0.0670 ha         1 XX6       0.134000
     42 H1          -2.9920    -4.5080     0.0400 ha         1 XX6       0.116000
     43 HA          -5.3960    -3.8770    -0.0230 ha         1 XX6       0.113000
     44 HB          -6.0650    -1.5380    -0.0590 ha         1 XX6       0.113000
     45 H11         -6.5640     0.4420    -0.0900 ha         1 XX6       0.111000
     46 H12         -7.0550     2.8270    -0.1250 ha         1 XX6       0.112000
     47 H13         -5.2190     4.5060    -0.0950 ha         1 XX6       0.111000
     48 H14         -2.8580     3.7540    -0.0290 ha         1 XX6       0.109000
@<TRIPOS>BOND
     1     1     2 1   
     2     1    26 1   
     3     2     3 1   
     4     2    27 1   
     5     2    28 1   
     6     3     4 1   
     7     3     6 1   
     8     3    29 1   
     9     4     5 1   
    10     4    30 1   
    11     4    31 1   
    12     5    33 1   
    13     6     7 1   
    14     6    32 1   
    15     7     8 1   
    16     7    34 1   
    17     7    35 1   
    18     8     9 1   
    19     8    10 1   
    20     8    36 1   
    21     9    37 1   
    22    10    11 1   
    23    10    38 1   
    24    10    39 1   
    25    11    12 1   
    26    12    13 ar  
    27    12    25 ar  
    28    13    14 ar  
    29    13    18 ar  
    30    14    15 ar  
    31    14    41 1   
    32    15    16 ar  
    33    15    42 1   
    34    16    17 ar  
    35    16    43 1   
    36    17    18 ar  
    37    17    44 1   
    38    18    19 ar  
    39    19    20 ar  
    40    19    24 ar  
    41    20    21 ar  
    42    20    45 1   
    43    21    22 ar  
    44    21    46 1   
    45    22    23 ar  
    46    22    47 1   
    47    23    24 ar  
    48    23    48 1   
    49    24    25 ar  
    50    25    40 1   
@<TRIPOS>SUBSTRUCTURE
     1 XX6         1 TEMP              0 ****  ****    0 ROOT
