@<TRIPOS>MOLECULE
XX6
   48    50     1     0     0
SMALL
bcc


@<TRIPOS>ATOM
      1 O4           7.1520    -1.3010    -0.0810 oh         1 XX6      -0.556300
      2 C19          6.8830    -0.2830     0.8520 c3         1 XX6       0.149400
      3 C18          5.7060     0.5780     0.4230 c3         1 XX6       0.186500
      4 C20          5.9670     1.3980    -0.8340 c3         1 XX6       0.149400
      5 O3           5.9500     0.5940    -1.9870 oh         1 XX6      -0.556300
      6 N            4.5050    -0.2290     0.3110 n7         1 XX6      -0.775200
      7 C17          3.2790     0.5320     0.2330 c3         1 XX6       0.131800
      8 C16          2.0730    -0.4000     0.2470 c3         1 XX6       0.136100
      9 O2           2.0530    -1.2280     1.3900 oh         1 XX6      -0.576800
     10 C15          0.7900     0.4000     0.1080 c3         1 XX6       0.106400
     11 O1          -0.2820    -0.5150     0.0070 os         1 XX6      -0.307900
     12 C10         -1.5400    -0.0530    -0.0160 ca         1 XX6       0.166100
     13 C5          -2.5480    -1.0850    -0.0810 ca         1 XX6      -0.049000
     14 C6          -2.1850    -2.4440    -0.1160 ca         1 XX6      -0.089000
     15 C1          -3.1430    -3.4260    -0.1830 ca         1 XX6      -0.138000
     16 C2          -4.4970    -3.0750    -0.2160 ca         1 XX6      -0.114000
     17 C3          -4.8690    -1.7520    -0.1790 ca         1 XX6      -0.130000
     18 C4          -3.9130    -0.7220    -0.1110 ca         1 XX6       0.004000
     19 C7          -4.2870     0.6790    -0.0690 ca         1 XX6      -0.046000
     20 C11         -5.6240     1.1160    -0.0870 ca         1 XX6      -0.105000
     21 C12         -5.9400     2.4540    -0.0440 ca         1 XX6      -0.140000
     22 C13         -4.9220     3.4140     0.0170 ca         1 XX6      -0.116000
     23 C14         -3.6080     3.0140     0.0350 ca         1 XX6      -0.132000
     24 C8          -3.2640     1.6490    -0.0080 ca         1 XX6       0.006000
     25 C9          -1.8900     1.2570     0.0140 ca         1 XX6      -0.242000
     26 H4           7.8500    -1.8500     0.2860 ho         1 XX6       0.393000
     27 H191         6.6510    -0.7020     1.8420 h1         1 XX6       0.009950
     28 H192         7.7480     0.3800     0.9920 h1         1 XX6       0.009950
     29 H18          5.6140     1.3310     1.2270 h1         1 XX6       0.010700
     30 H201         5.2120     2.1930    -0.8980 h1         1 XX6       0.009950
     31 H202         6.9310     1.9100    -0.7010 h1         1 XX6       0.009950
     32 H            4.4500    -0.8370     1.1200 hn         1 XX6       0.367800
     33 H3           6.0420     1.1770    -2.7450 ho         1 XX6       0.393000
     34 H171         3.1790     1.2740     1.0470 h1         1 XX6       0.028700
     35 H172         3.2590     1.1000    -0.7010 h1         1 XX6       0.028700
     36 H16          2.1590    -1.0800    -0.6060 h1         1 XX6       0.109700
     37 H2           1.9680    -0.6710     2.1720 ho         1 XX6       0.393000
     38 H151         0.6560     1.0590     0.9760 h1         1 XX6       0.038700
     39 H152         0.8400     1.0360    -0.7830 h1         1 XX6       0.038700
     40 H9          -1.1470     2.0420     0.0510 ha         1 XX6       0.133000
     41 H6          -1.1410    -2.7220    -0.0890 ha         1 XX6       0.152000
     42 H1          -2.8510    -4.4680    -0.2110 ha         1 XX6       0.134000
     43 HA          -5.2560    -3.8440    -0.2700 ha         1 XX6       0.131000
     44 HB          -5.9230    -1.5160    -0.2040 ha         1 XX6       0.131000
     45 H11         -6.4320     0.3990    -0.1340 ha         1 XX6       0.129000
     46 H12         -6.9770     2.7620    -0.0580 ha         1 XX6       0.130000
     47 H13         -5.1690     4.4670     0.0520 ha         1 XX6       0.129000
     48 H14         -2.8160     3.7510     0.0820 ha         1 XX6       0.127000
@<TRIPOS>BOND
     1     1     2 1   
     2     1    26 1   
     3     2     3 1   
     4     2    27 1   
     5     2    28 1   
     6     3     4 1   
     7     3     6 1   
     8     3    29 1   
     9     4     5 1   
    10     4    30 1   
    11     4    31 1   
    12     5    33 1   
    13     6     7 1   
    14     6    32 1   
    15     7     8 1   
    16     7    34 1   
    17     7    35 1   
    18     8     9 1   
    19     8    10 1   
    20     8    36 1   
    21     9    37 1   
    22    10    11 1   
    23    10    38 1   
    24    10    39 1   
    25    11    12 1   
    26    12    13 ar  
    27    12    25 ar  
    28    13    14 ar  
    29    13    18 ar  
    30    14    15 ar  
    31    14    41 1   
    32    15    16 ar  
    33    15    42 1   
    34    16    17 ar  
    35    16    43 1   
    36    17    18 ar  
    37    17    44 1   
    38    18    19 ar  
    39    19    20 ar  
    40    19    24 ar  
    41    20    21 ar  
    42    20    45 1   
    43    21    22 ar  
    44    21    46 1   
    45    22    23 ar  
    46    22    47 1   
    47    23    24 ar  
    48    23    48 1   
    49    24    25 ar  
    50    25    40 1   
@<TRIPOS>SUBSTRUCTURE
     1 XX6         1 TEMP              0 ****  ****    0 ROOT
