@<TRIPOS>MOLECULE
XX7
   48    50     1     0     0
SMALL
No Charge or Current Charge


@<TRIPOS>ATOM
      1 O4           6.1920    -0.3550    -1.9870 oh         1 XX7      -0.644500
      2 C19          6.2270    -1.3290    -0.9230 c3         1 XX7       0.152100
      3 C18          5.7860    -0.7280     0.4560 c3         1 XX7       0.182500
      4 C20          6.9200     0.0930     1.1540 c3         1 XX7       0.152100
      5 O3           7.1870     1.3500     0.4990 oh         1 XX7      -0.644500
      6 N            4.5490     0.0920     0.3280 n7         1 XX7      -0.860400
      7 C17          3.3110    -0.6370    -0.0630 c3         1 XX7       0.132800
      8 O2           2.2520     1.1020     1.2010 oh         1 XX7      -0.627000
      9 C15          0.7380    -0.4720     0.0420 c3         1 XX7       0.128600
     10 O1          -0.3480     0.4730    -0.0280 os         1 XX7      -0.329100
     11 C10         -1.6780     0.0880    -0.0310 ca         1 XX7       0.167100
     12 C5          -2.6800     1.0840    -0.0920 ca         1 XX7      -0.049000
     13 C6          -2.3100     2.4480    -0.1460 ca         1 XX7      -0.071000
     14 C1          -3.2840     3.4530    -0.2080 ca         1 XX7      -0.121000
     15 C2          -4.6390     3.1080    -0.2150 ca         1 XX7      -0.096000
     16 C3          -5.0240     1.7590    -0.1610 ca         1 XX7      -0.112000
     17 C4          -4.0570     0.7210    -0.0990 ca         1 XX7       0.005000
     18 C7          -4.4190    -0.6590    -0.0430 ca         1 XX7      -0.047000
     19 C11         -5.7680    -1.1060    -0.0450 ca         1 XX7      -0.087000
     20 C12         -6.0770    -2.4750     0.0110 ca         1 XX7      -0.123000
     21 C13         -5.0540    -3.4290     0.0710 ca         1 XX7      -0.098000
     22 C14         -3.7170    -3.0110     0.0740 ca         1 XX7      -0.115000
     23 C8          -3.3980    -1.6400     0.0180 ca         1 XX7       0.007000
     24 C9          -2.0460    -1.2680     0.0240 ca         1 XX7      -0.226000
     25 C16          2.0810     0.3030     0.0200 c3         1 XX7       0.169300
     26 H4           6.5160    -0.8050    -2.7970 ho         1 XX7       0.440000
     27 H191         5.5540    -2.1610    -1.1690 h1         1 XX7       0.020950
     28 H192         7.2360    -1.7520    -0.8240 h1         1 XX7       0.020950
     29 H18          5.5840    -1.5810     1.1190 h1         1 XX7       0.051700
     30 H201         6.6170     0.2800     2.1930 h1         1 XX7       0.020950
     31 H202         7.8320    -0.5170     1.1900 h1         1 XX7       0.020950
     32 H            4.7750     0.7760    -0.4100 hn         1 XX7       0.447000
     33 H3           7.8630     1.8150     1.0390 ho         1 XX7       0.440000
     34 H171         3.3920    -1.0400    -1.0810 h1         1 XX7       0.029200
     35 H172         3.1500    -1.4840     0.6180 h1         1 XX7       0.029200
     36 H16          2.0910     0.9470    -0.8710 h1         1 XX7       0.086700
     37 H2           3.2260     1.0170     1.3580 ho         1 XX7       0.440000
     38 H151         0.6770    -1.0700     0.9610 h1         1 XX7       0.037200
     39 H152         0.7060    -1.1530    -0.8180 h1         1 XX7       0.037200
     40 H9          -1.2920    -2.0480     0.0710 ha         1 XX7       0.114000
     41 H6          -1.2620     2.7420    -0.1410 ha         1 XX7       0.134000
     42 H1          -2.9860     4.4990    -0.2490 ha         1 XX7       0.116000
     43 HA          -5.3970     3.8870    -0.2630 ha         1 XX7       0.112000
     44 HB          -6.0870     1.5570    -0.1700 ha         1 XX7       0.112000
     45 H11         -6.6040    -0.4180    -0.0900 ha         1 XX7       0.110000
     46 H12         -7.1170    -2.7960     0.0080 ha         1 XX7       0.112000
     47 H13         -5.2960    -4.4890     0.1140 ha         1 XX7       0.111000
     48 H14         -2.9270    -3.7570     0.1210 ha         1 XX7       0.109000
@<TRIPOS>BOND
     1     1     2 1   
     2     1    26 1   
     3     2     3 1   
     4     2    27 1   
     5     2    28 1   
     6     3     4 1   
     7     3     6 1   
     8     3    29 1   
     9     4     5 1   
    10     4    30 1   
    11     4    31 1   
    12     5    33 1   
    13     6     7 1   
    14     6    32 1   
    15     7    25 1   
    16     7    34 1   
    17     7    35 1   
    18     8    25 1   
    19     8    37 1   
    20     9    10 1   
    21     9    25 1   
    22     9    38 1   
    23     9    39 1   
    24    10    11 1   
    25    11    12 ar  
    26    11    24 ar  
    27    12    13 ar  
    28    12    17 ar  
    29    13    14 ar  
    30    13    41 1   
    31    14    15 ar  
    32    14    42 1   
    33    15    16 ar  
    34    15    43 1   
    35    16    17 ar  
    36    16    44 1   
    37    17    18 ar  
    38    18    19 ar  
    39    18    23 ar  
    40    19    20 ar  
    41    19    45 1   
    42    20    21 ar  
    43    20    46 1   
    44    21    22 ar  
    45    21    47 1   
    46    22    23 ar  
    47    22    48 1   
    48    23    24 ar  
    49    24    40 1   
    50    25    36 1   
@<TRIPOS>SUBSTRUCTURE
     1 XX7         1 TEMP              0 ****  ****    0 ROOT
