@<TRIPOS>MOLECULE
XX7
   48    50     1     0     0
SMALL
abcg2


@<TRIPOS>ATOM
      1 O4           6.0360    -0.8670    -1.9300 oh         1 XX7      -0.644500
      2 C19          5.9940    -1.5520    -0.7000 c3         1 XX7       0.152100
      3 C18          5.7030    -0.5800     0.4440 c3         1 XX7       0.182500
      4 C20          6.8790     0.3140     0.8070 c3         1 XX7       0.152100
      5 O3           7.1430     1.2400    -0.2240 oh         1 XX7      -0.644500
      6 N            4.5130     0.2320     0.2730 n7         1 XX7      -0.860400
      7 C17          3.2800    -0.5080     0.1310 c3         1 XX7       0.132800
      8 O2           2.0410     1.2100     1.3530 oh         1 XX7      -0.627000
      9 C15          0.7970    -0.3820     0.0210 c3         1 XX7       0.128600
     10 O1          -0.2840     0.5280    -0.0320 os         1 XX7      -0.329100
     11 C10         -1.5380     0.0580    -0.0590 ca         1 XX7       0.167100
     12 C5          -2.5560     1.0820    -0.0470 ca         1 XX7      -0.049000
     13 C6          -2.2040     2.4440    -0.0080 ca         1 XX7      -0.071000
     14 C1          -3.1720     3.4200     0.0020 ca         1 XX7      -0.121000
     15 C2          -4.5230     3.0590    -0.0270 ca         1 XX7      -0.096000
     16 C3          -4.8830     1.7330    -0.0630 ca         1 XX7      -0.112000
     17 C4          -3.9180     0.7090    -0.0730 ca         1 XX7       0.005000
     18 C7          -4.2800    -0.6950    -0.1070 ca         1 XX7      -0.047000
     19 C11         -5.6140    -1.1410    -0.1290 ca         1 XX7      -0.087000
     20 C12         -5.9180    -2.4830    -0.1590 ca         1 XX7      -0.123000
     21 C13         -4.8920    -3.4350    -0.1700 ca         1 XX7      -0.098000
     22 C14         -3.5810    -3.0260    -0.1500 ca         1 XX7      -0.115000
     23 C8          -3.2490    -1.6580    -0.1170 ca         1 XX7       0.007000
     24 C9          -1.8780    -1.2560    -0.0940 ca         1 XX7      -0.226000
     25 C16          2.0740     0.4260     0.1870 c3         1 XX7       0.169300
     26 H4           5.9780    -1.5180    -2.6340 ho         1 XX7       0.440000
     27 H191         5.2160    -2.3260    -0.7080 h1         1 XX7       0.020950
     28 H192         6.9400    -2.0700    -0.4860 h1         1 XX7       0.020950
     29 H18          5.5470    -1.2120     1.3270 h1         1 XX7       0.051700
     30 H201         6.6330     0.8260     1.7450 h1         1 XX7       0.020950
     31 H202         7.7530    -0.3210     1.0080 h1         1 XX7       0.020950
     32 H            4.6360     0.8410    -0.5280 hn         1 XX7       0.447000
     33 H3           7.7030     1.9310     0.1380 ho         1 XX7       0.440000
     34 H171         3.2170    -1.0970    -0.7960 h1         1 XX7       0.029200
     35 H172         3.2110    -1.2290     0.9540 h1         1 XX7       0.029200
     36 H16          2.1430     1.1320    -0.6490 h1         1 XX7       0.086700
     37 H2           2.2330     0.6430     2.1080 ho         1 XX7       0.440000
     38 H151         0.6740    -1.0750     0.8640 h1         1 XX7       0.037200
     39 H152         0.8400    -0.9790    -0.8960 h1         1 XX7       0.037200
     40 H9          -1.1280    -2.0350    -0.1090 ha         1 XX7       0.114000
     41 H6          -1.1620     2.7290     0.0190 ha         1 XX7       0.134000
     42 H1          -2.8890     4.4640     0.0320 ha         1 XX7       0.116000
     43 HA          -5.2880     3.8240    -0.0210 ha         1 XX7       0.112000
     44 HB          -5.9360     1.4890    -0.0830 ha         1 XX7       0.112000
     45 H11         -6.4280    -0.4300    -0.1210 ha         1 XX7       0.110000
     46 H12         -6.9530    -2.7990    -0.1750 ha         1 XX7       0.112000
     47 H13         -5.1300    -4.4910    -0.1940 ha         1 XX7       0.111000
     48 H14         -2.7830    -3.7580    -0.1570 ha         1 XX7       0.109000
@<TRIPOS>BOND
     1     1     2 1   
     2     1    26 1   
     3     2     3 1   
     4     2    27 1   
     5     2    28 1   
     6     3     4 1   
     7     3     6 1   
     8     3    29 1   
     9     4     5 1   
    10     4    30 1   
    11     4    31 1   
    12     5    33 1   
    13     6     7 1   
    14     6    32 1   
    15     7    25 1   
    16     7    34 1   
    17     7    35 1   
    18     8    25 1   
    19     8    37 1   
    20     9    10 1   
    21     9    25 1   
    22     9    38 1   
    23     9    39 1   
    24    10    11 1   
    25    11    12 ar  
    26    11    24 ar  
    27    12    13 ar  
    28    12    17 ar  
    29    13    14 ar  
    30    13    41 1   
    31    14    15 ar  
    32    14    42 1   
    33    15    16 ar  
    34    15    43 1   
    35    16    17 ar  
    36    16    44 1   
    37    17    18 ar  
    38    18    19 ar  
    39    18    23 ar  
    40    19    20 ar  
    41    19    45 1   
    42    20    21 ar  
    43    20    46 1   
    44    21    22 ar  
    45    21    47 1   
    46    22    23 ar  
    47    22    48 1   
    48    23    24 ar  
    49    24    40 1   
    50    25    36 1   
@<TRIPOS>SUBSTRUCTURE
     1 XX7         1 TEMP              0 ****  ****    0 ROOT
