@<TRIPOS>MOLECULE
XX8
   32    33     1     0     0
SMALL
abcg2


@<TRIPOS>ATOM
      1 CM2         -5.1710     0.1280     1.1710 c3         1 XX8      -0.134400
      2 O01          4.1760     2.0320    -1.2720 oh         1 XX8      -0.659000
      3 C2           1.0140    -1.2820     0.6770 ca         1 XX8      -0.098000
      4 C5           3.2730     0.1830    -0.0620 ca         1 XX8      -0.085300
      5 C4           2.1490     0.1440    -0.8840 ca         1 XX8      -0.095000
      6 C01          1.0160    -0.5830    -0.5270 ca         1 XX8      -0.096300
      7 C7A         -0.1820    -0.6240    -1.4500 c3         1 XX8       0.031200
      8 C4A         -1.8430     0.7950    -0.1270 ca         1 XX8       0.392900
      9 N3A         -3.0190     0.9440     0.4780 nb         1 XX8      -0.277000
     10 C2A         -3.8580    -0.0870     0.4850 ca         1 XX8       0.179300
     11 N1A         -3.6270    -1.2700    -0.0600 nb         1 XX8      -0.220000
     12 C6A         -2.4440    -1.4120    -0.6680 ca         1 XX8       0.136900
     13 C5A         -1.4920    -0.4270    -0.7500 ca         1 XX8      -0.262300
     14 C28          3.2500    -0.5190     1.1380 ca         1 XX8      -0.108000
     15 C30          2.1280    -1.2520     1.5020 ca         1 XX8      -0.108000
     16 H1          -5.7240     0.9370     0.6910 hc         1 XX8       0.057367
     17 H2          -5.7790    -0.7730     1.1430 hc         1 XX8       0.057367
     18 H3          -5.0210     0.4170     2.2120 hc         1 XX8       0.057367
     19 H4          -1.2570     2.6540     0.4210 hn         1 XX8       0.493000
     20 H5          -0.0500     1.7580    -0.3870 hn         1 XX8       0.493000
     21 H6           4.9840     2.3770    -1.6610 ho         1 XX8       0.447000
     22 H7           5.1760     0.2350    -1.0050 h1         1 XX8       0.027200
     23 H8           5.0590     1.2360     0.4340 h1         1 XX8       0.027200
     24 H9           0.1400    -1.8470     0.9760 ha         1 XX8       0.120000
     25 H10          2.1470     0.6890    -1.8210 ha         1 XX8       0.125000
     26 H11         -0.0580     0.1310    -2.2330 hc         1 XX8       0.057200
     27 H12         -0.2050    -1.5880    -1.9660 hc         1 XX8       0.057200
     28 H13         -2.2480    -2.3800    -1.1200 h4         1 XX8       0.016100
     29 H14          4.1110    -0.4890     1.7960 ha         1 XX8       0.111000
     30 H15          2.1200    -1.7930     2.4390 ha         1 XX8       0.116000
     31 N4A         -1.0220     1.8610    -0.1520 nv         1 XX8      -1.066900
     32 C6           4.5150     0.9290    -0.4690 c3         1 XX8       0.208900
@<TRIPOS>BOND
     1     1    10 1   
     2     1    16 1   
     3     1    17 1   
     4     1    18 1   
     5     2    21 1   
     6     2    32 1   
     7     3     6 ar  
     8     3    15 ar  
     9     3    24 1   
    10     4     5 ar  
    11     4    14 ar  
    12     4    32 1   
    13     5     6 ar  
    14     5    25 1   
    15     6     7 1   
    16     7    13 1   
    17     7    26 1   
    18     7    27 1   
    19     8     9 ar  
    20     8    13 ar  
    21     8    31 1   
    22     9    10 ar  
    23    10    11 ar  
    24    11    12 ar  
    25    12    13 ar  
    26    12    28 1   
    27    14    15 ar  
    28    14    29 1   
    29    15    30 1   
    30    19    31 1   
    31    20    31 1   
    32    22    32 1   
    33    23    32 1   
@<TRIPOS>SUBSTRUCTURE
     1 XX8         1 TEMP              0 ****  ****    0 ROOT
