@<TRIPOS>MOLECULE
XX8
   32    33     1     0     0
SMALL
No Charge or Current Charge


@<TRIPOS>ATOM
      1 CM2         -5.1280     0.3690     1.1810 c3         1 XX8      -0.134400
      2 O01          4.1390     2.4400    -0.2690 oh         1 XX8      -0.659000
      3 C2           1.0740    -1.4260     0.6860 ca         1 XX8      -0.098000
      4 C5           3.2320     0.1940    -0.1260 ca         1 XX8      -0.085300
      5 C4           2.1070     0.0360    -0.9600 ca         1 XX8      -0.095000
      6 C01          1.0220    -0.7690    -0.5590 ca         1 XX8      -0.096300
      7 C7A         -0.1970    -0.9320    -1.4610 c3         1 XX8       0.031200
      8 C4A         -1.8060     0.7390    -0.3270 ca         1 XX8       0.392900
      9 N3A         -2.9560     1.0460     0.2870 nb         1 XX8      -0.277000
     10 C2A         -3.8230     0.0320     0.4830 ca         1 XX8       0.179300
     11 N1A         -3.6370    -1.2560     0.1220 nb         1 XX8      -0.220000
     12 C6A         -2.4750    -1.5500    -0.4950 ca         1 XX8       0.136900
     13 C5A         -1.5010    -0.5670    -0.7510 ca         1 XX8      -0.262300
     14 C28          3.2670    -0.4640     1.1190 ca         1 XX8      -0.108000
     15 C30          2.1920    -1.2730     1.5220 ca         1 XX8      -0.108000
     16 H1          -5.4580     1.3880     0.9440 hc         1 XX8       0.057367
     17 H2          -5.9320    -0.3140     0.8820 hc         1 XX8       0.057367
     18 H3          -5.0160     0.2980     2.2690 hc         1 XX8       0.057367
     19 H4          -1.1430     2.6300     0.0250 hn         1 XX8       0.493000
     20 H5           0.0290     1.5570    -0.6390 hn         1 XX8       0.493000
     21 H6           4.9240     2.9490    -0.5710 ho         1 XX8       0.447000
     22 H7           4.5560     0.9350    -1.6500 h1         1 XX8       0.027200
     23 H8           5.3170     0.7320    -0.0650 h1         1 XX8       0.027200
     24 H9           0.2450    -2.0540     1.0070 ha         1 XX8       0.120000
     25 H10          2.0810     0.5430    -1.9230 ha         1 XX8       0.125000
     26 H11         -0.0910    -0.3190    -2.3650 hc         1 XX8       0.057200
     27 H12         -0.2390    -1.9680    -1.8190 hc         1 XX8       0.057200
     28 H13         -2.3280    -2.5890    -0.7860 h4         1 XX8       0.016100
     29 H14          4.1290    -0.3490     1.7730 ha         1 XX8       0.111000
     30 H15          2.2250    -1.7800     2.4840 ha         1 XX8       0.116000
     31 N4A         -0.9520     1.7790    -0.4970 nv         1 XX8      -1.066900
     32 C6           4.4000     1.0650    -0.5710 c3         1 XX8       0.208900
@<TRIPOS>BOND
     1     1    10 1   
     2     1    16 1   
     3     1    17 1   
     4     1    18 1   
     5     2    21 1   
     6     2    32 1   
     7     3     6 ar  
     8     3    15 ar  
     9     3    24 1   
    10     4     5 ar  
    11     4    14 ar  
    12     4    32 1   
    13     5     6 ar  
    14     5    25 1   
    15     6     7 1   
    16     7    13 1   
    17     7    26 1   
    18     7    27 1   
    19     8     9 ar  
    20     8    13 ar  
    21     8    31 1   
    22     9    10 ar  
    23    10    11 ar  
    24    11    12 ar  
    25    12    13 ar  
    26    12    28 1   
    27    14    15 ar  
    28    14    29 1   
    29    15    30 1   
    30    19    31 1   
    31    20    31 1   
    32    22    32 1   
    33    23    32 1   
@<TRIPOS>SUBSTRUCTURE
     1 XX8         1 TEMP              0 ****  ****    0 ROOT
