@<TRIPOS>MOLECULE
XX9
   60    62     1     0     0
SMALL
abcg2


@<TRIPOS>ATOM
      1 CLH         -1.0150    -0.5620     1.9890 cl         1 XX9      -0.189000
      2 CAW         -2.1270    -0.8160     0.6870 ca         1 XX9       0.205500
      3 CAQ         -3.4710    -0.6430     0.9330 ca         1 XX9      -0.204500
      4 CBA         -4.4060    -0.8110    -0.1070 ca         1 XX9       0.370000
      5 NBD         -5.7340    -0.6390     0.1100 nh         1 XX9      -0.824400
      6 CAB         -6.6660    -0.7490    -0.9890 c3         1 XX9       0.217100
      7 CAA         -6.2000    -0.1940     1.4040 c3         1 XX9       0.217100
      8 CAR         -3.9130    -1.1570    -1.3810 ca         1 XX9      -0.204500
      9 CAX         -2.5570    -1.3240    -1.5700 ca         1 XX9       0.205500
     10 CLI         -1.9920    -1.7480    -3.1550 cl         1 XX9      -0.189000
     11 CBC         -1.6190    -1.1450    -0.5640 ca         1 XX9      -0.194600
     12 CAU         -0.1530    -1.3850    -0.7590 c          1 XX9       0.640700
     13 OAF          0.3360    -2.4630    -0.4770 o          1 XX9      -0.559100
     14 NBE          0.5700    -0.3430    -1.2250 n          1 XX9      -0.230400
     15 CAT         -0.0250     0.9290    -1.6440 c3         1 XX9       0.162300
     16 CAY         -0.4060     1.8400    -0.5050 ca         1 XX9      -0.109300
     17 CAN         -1.7390     2.1590    -0.2800 ca         1 XX9      -0.092000
     18 CAK         -2.1030     2.9790     0.7800 ca         1 XX9      -0.113500
     19 CAJ         -1.1310     3.4940     1.6250 ca         1 XX9      -0.103000
     20 CAL          0.2080     3.1940     1.3970 ca         1 XX9      -0.113500
     21 CAO          0.5670     2.3760     0.3370 ca         1 XX9      -0.092000
     22 CAZ          1.9870    -0.4700    -1.2720 ca         1 XX9      -0.085000
     23 CAS          2.7170    -0.4460    -0.0900 ca         1 XX9      -0.069000
     24 CAP          2.6470    -0.5880    -2.4800 ca         1 XX9      -0.067000
     25 CAM          4.0300    -0.6700    -2.4860 ca         1 XX9      -0.209000
     26 CAV          4.7560    -0.6460    -1.2980 ca         1 XX9       0.145100
     27 OAG          6.1010    -0.7310    -1.3280 oh         1 XX9      -0.534100
     28 CBB          4.1040    -0.5320    -0.0540 ca         1 XX9      -0.086300
     29 CBF          4.8630    -0.4890     1.2740 c3         1 XX9       0.016300
     30 CAD          5.7910     0.7340     1.3210 c3         1 XX9      -0.084433
     31 CAE          3.9060    -0.3660     2.4640 c3         1 XX9      -0.084433
     32 CAC          5.6680    -1.7820     1.4750 c3         1 XX9      -0.084433
     33 H1          -3.7860    -0.3650     1.9270 ha         1 XX9       0.133500
     34 H2          -6.6360    -1.7390    -1.4490 h1         1 XX9       0.040867
     35 H3          -7.6750    -0.5920    -0.6190 h1         1 XX9       0.040867
     36 H4          -6.4750    -0.0060    -1.7690 h1         1 XX9       0.040867
     37 H5          -5.7750     0.7740     1.6850 h1         1 XX9       0.040867
     38 H6          -7.2800    -0.0880     1.3790 h1         1 XX9       0.040867
     39 H7          -5.9580    -0.9110     2.1930 h1         1 XX9       0.040867
     40 H8          -4.5790    -1.2990    -2.2190 ha         1 XX9       0.133500
     41 H9           0.7120     1.4190    -2.2800 h1         1 XX9       0.058700
     42 H10         -0.8900     0.7400    -2.2790 h1         1 XX9       0.058700
     43 H11         -2.5050     1.7550    -0.9320 ha         1 XX9       0.115000
     44 H12         -3.1470     3.2090     0.9480 ha         1 XX9       0.111000
     45 H13         -1.4110     4.1300     2.4550 ha         1 XX9       0.111000
     46 H14          0.9720     3.6020     2.0450 ha         1 XX9       0.111000
     47 H15          1.6140     2.1590     0.1610 ha         1 XX9       0.115000
     48 H16          2.1580    -0.3480     0.8300 ha         1 XX9       0.130000
     49 H17          2.0960    -0.6140    -3.4120 ha         1 XX9       0.121000
     50 H18          4.5550    -0.7610    -3.4310 ha         1 XX9       0.112000
     51 H19          6.4080    -0.8210    -2.2370 ho         1 XX9       0.462000
     52 H20          6.3010     0.7710     2.2860 hc         1 XX9       0.036367
     53 H21          6.5530     0.7180     0.5450 hc         1 XX9       0.036367
     54 H22          5.2180     1.6570     1.2170 hc         1 XX9       0.036367
     55 H23          3.2180    -1.2100     2.5360 hc         1 XX9       0.036367
     56 H24          4.4880    -0.3420     3.3870 hc         1 XX9       0.036367
     57 H25          3.3190     0.5540     2.4310 hc         1 XX9       0.036367
     58 H26          5.0130    -2.6550     1.4640 hc         1 XX9       0.036367
     59 H27          6.4340    -1.9240     0.7170 hc         1 XX9       0.036367
     60 H28          6.1680    -1.7590     2.4470 hc         1 XX9       0.036367
@<TRIPOS>BOND
     1     1     2 1   
     2     2     3 ar  
     3     2    11 ar  
     4     3     4 ar  
     5     3    33 1   
     6     4     5 1   
     7     4     8 ar  
     8     5     6 1   
     9     5     7 1   
    10     6    34 1   
    11     6    35 1   
    12     6    36 1   
    13     7    37 1   
    14     7    38 1   
    15     7    39 1   
    16     8     9 ar  
    17     8    40 1   
    18     9    10 1   
    19     9    11 ar  
    20    11    12 1   
    21    12    13 2   
    22    12    14 1   
    23    14    15 1   
    24    14    22 1   
    25    15    16 1   
    26    15    41 1   
    27    15    42 1   
    28    16    17 ar  
    29    16    21 ar  
    30    17    18 ar  
    31    17    43 1   
    32    18    19 ar  
    33    18    44 1   
    34    19    20 ar  
    35    19    45 1   
    36    20    21 ar  
    37    20    46 1   
    38    21    47 1   
    39    22    23 ar  
    40    22    24 ar  
    41    23    28 ar  
    42    23    48 1   
    43    24    25 ar  
    44    24    49 1   
    45    25    26 ar  
    46    25    50 1   
    47    26    27 1   
    48    26    28 ar  
    49    27    51 1   
    50    28    29 1   
    51    29    30 1   
    52    29    31 1   
    53    29    32 1   
    54    30    52 1   
    55    30    53 1   
    56    30    54 1   
    57    31    55 1   
    58    31    56 1   
    59    31    57 1   
    60    32    58 1   
    61    32    59 1   
    62    32    60 1   
@<TRIPOS>SUBSTRUCTURE
     1 XX9         1 TEMP              0 ****  ****    0 ROOT
