@<TRIPOS>MOLECULE
XX9
   60    62     1     0     0
SMALL
No Charge or Current Charge


@<TRIPOS>ATOM
      1 ClH         -0.7790    -0.0350     2.2670 cl         1 XX9      -0.189000
      2 CAW         -1.9110    -0.4830     0.9920 ca         1 XX9       0.205500
      3 CAQ         -3.2810    -0.2870     1.2050 ca         1 XX9      -0.204500
      4 CBA         -4.2140    -0.6350     0.2150 ca         1 XX9       0.370000
      5 NBD         -5.5990    -0.4220     0.4210 nh         1 XX9      -0.824400
      6 CAB         -6.5060    -0.1050    -0.7070 c3         1 XX9       0.217100
      7 CAA         -6.1950    -0.4540     1.7780 c3         1 XX9       0.217100
      8 CAR         -3.7530    -1.2050    -0.9830 ca         1 XX9      -0.204500
      9 CAX         -2.3830    -1.4040    -1.1970 ca         1 XX9       0.205500
     10 ClI         -1.8550    -2.1320    -2.7120 cl         1 XX9      -0.189000
     11 CBC         -1.4520    -1.0220    -0.2200 ca         1 XX9      -0.194600
     12 CAU          0.0110    -1.1970    -0.4470 c          1 XX9       0.640700
     13 OAF          0.5570    -2.2330    -0.0850 o          1 XX9      -0.559100
     14 NBE          0.7340    -0.1220    -1.0400 n          1 XX9      -0.230400
     15 CAT         -0.0080     0.9200    -1.7990 c3         1 XX9       0.162300
     16 CAY         -0.8190     1.8820    -0.9370 ca         1 XX9      -0.109300
     17 CAN         -2.1940     2.0720    -1.1820 ca         1 XX9      -0.092000
     18 CAK         -2.9470     2.9340    -0.3660 ca         1 XX9      -0.113500
     19 CAJ         -2.3270     3.6210     0.6910 ca         1 XX9      -0.103000
     20 CAL         -0.9530     3.4480     0.9290 ca         1 XX9      -0.113500
     21 CAO         -0.2010     2.5830     0.1170 ca         1 XX9      -0.092000
     22 CAZ          2.1780    -0.0880    -1.0880 ca         1 XX9      -0.085000
     23 CAS          2.9300    -0.4600     0.0460 ca         1 XX9      -0.069000
     24 CAP          2.8370     0.0120    -2.3260 ca         1 XX9      -0.067000
     25 CAM          4.2290    -0.1140    -2.3940 ca         1 XX9      -0.209000
     26 CAV          4.9830    -0.3970    -1.2460 ca         1 XX9       0.145100
     27 OAG          6.3340    -0.4980    -1.4070 oh         1 XX9      -0.534100
     28 CBB          4.3460    -0.5940     0.0150 ca         1 XX9      -0.086300
     29 CBF          5.1460    -0.9530     1.3160 c3         1 XX9       0.016300
     30 CAD          6.1570     0.1790     1.6590 c3         1 XX9      -0.084433
     31 CAE          4.2320    -1.1220     2.5680 c3         1 XX9      -0.084433
     32 CAC          5.8970    -2.3030     1.1340 c3         1 XX9      -0.084433
     33 H1          -3.6090     0.1550     2.1390 ha         1 XX9       0.133500
     34 H2          -6.8770    -1.0270    -1.1740 h1         1 XX9       0.040867
     35 H3          -7.3690     0.4820    -0.3620 h1         1 XX9       0.040867
     36 H4          -5.9840     0.4910    -1.4670 h1         1 XX9       0.040867
     37 H5          -6.1060     0.5270     2.2620 h1         1 XX9       0.040867
     38 H6          -7.2600    -0.7220     1.7290 h1         1 XX9       0.040867
     39 H7          -5.6940    -1.2050     2.4040 h1         1 XX9       0.040867
     40 H8          -4.4550    -1.5050    -1.7530 ha         1 XX9       0.133500
     41 H9           0.7030     1.5280    -2.3730 h1         1 XX9       0.058700
     42 H10         -0.6610     0.4310    -2.5320 h1         1 XX9       0.058700
     43 H11         -2.6860     1.5430    -1.9960 ha         1 XX9       0.115000
     44 H12         -4.0100     3.0670    -0.5520 ha         1 XX9       0.111000
     45 H13         -2.9100     4.2870     1.3230 ha         1 XX9       0.111000
     46 H14         -0.4720     3.9810     1.7470 ha         1 XX9       0.111000
     47 H15          0.8610     2.4490     0.3140 ha         1 XX9       0.115000
     48 H16          2.3760    -0.6100     0.9660 ha         1 XX9       0.130000
     49 H17          2.2760     0.1860    -3.2420 ha         1 XX9       0.121000
     50 H18          4.7190    -0.0030    -3.3590 ha         1 XX9       0.112000
     51 H19          6.5450    -0.3310    -2.3490 ho         1 XX9       0.462000
     52 H20          6.6500    -0.0140     2.6200 hc         1 XX9       0.036367
     53 H21          6.9490     0.2730     0.9100 hc         1 XX9       0.036367
     54 H22          5.6430     1.1450     1.7310 hc         1 XX9       0.036367
     55 H23          3.5090    -1.9340     2.4260 hc         1 XX9       0.036367
     56 H24          4.8240    -1.3680     3.4580 hc         1 XX9       0.036367
     57 H25          3.6850    -0.1970     2.7890 hc         1 XX9       0.036367
     58 H26          5.2000    -3.0950     0.8350 hc         1 XX9       0.036367
     59 H27          6.6850    -2.2440     0.3770 hc         1 XX9       0.036367
     60 H28          6.3780    -2.6130     2.0700 hc         1 XX9       0.036367
@<TRIPOS>BOND
     1     1     2 1   
     2     2     3 ar  
     3     2    11 ar  
     4     3     4 ar  
     5     3    33 1   
     6     4     5 1   
     7     4     8 ar  
     8     5     6 1   
     9     5     7 1   
    10     6    34 1   
    11     6    35 1   
    12     6    36 1   
    13     7    37 1   
    14     7    38 1   
    15     7    39 1   
    16     8     9 ar  
    17     8    40 1   
    18     9    10 1   
    19     9    11 ar  
    20    11    12 1   
    21    12    13 2   
    22    12    14 1   
    23    14    15 1   
    24    14    22 1   
    25    15    16 1   
    26    15    41 1   
    27    15    42 1   
    28    16    17 ar  
    29    16    21 ar  
    30    17    18 ar  
    31    17    43 1   
    32    18    19 ar  
    33    18    44 1   
    34    19    20 ar  
    35    19    45 1   
    36    20    21 ar  
    37    20    46 1   
    38    21    47 1   
    39    22    23 ar  
    40    22    24 ar  
    41    23    28 ar  
    42    23    48 1   
    43    24    25 ar  
    44    24    49 1   
    45    25    26 ar  
    46    25    50 1   
    47    26    27 1   
    48    26    28 ar  
    49    27    51 1   
    50    28    29 1   
    51    29    30 1   
    52    29    31 1   
    53    29    32 1   
    54    30    52 1   
    55    30    53 1   
    56    30    54 1   
    57    31    55 1   
    58    31    56 1   
    59    31    57 1   
    60    32    58 1   
    61    32    59 1   
    62    32    60 1   
@<TRIPOS>SUBSTRUCTURE
     1 XX9         1 TEMP              0 ****  ****    0 ROOT
