@<TRIPOS>MOLECULE
XXA
   33    32     1     0     0
SMALL
No Charge or Current Charge


@<TRIPOS>ATOM
      1 C            5.5860   -31.7810    27.7230 c          1 XXA       0.739000
      2 N            7.9610   -31.6380    26.5090 n7         1 XXA      -0.840400
      3 O            5.2480   -32.7240    27.0140 o          1 XXA      -0.727000
      4 CA           6.9240   -30.9810    27.4170 c3         1 XXA       0.050500
      5 CB           6.5870   -29.4890    27.0490 c3         1 XXA       0.154300
      6 CH           4.3690   -25.3850    28.1790 ce         1 XXA      -0.161000
      7 CT           3.0990   -25.0150    27.9180 c2         1 XXA      -0.329000
      8 CZ           5.2280   -26.0410    27.1910 ce         1 XXA      -0.215000
      9 CD2          7.4380   -27.0930    26.4670 c3         1 XXA      -0.047200
     10 OG1          5.7610   -29.4260    25.8750 oh         1 XXA      -0.641000
     11 CG2          7.8270   -28.5460    26.8710 c3         1 XXA      -0.094700
     12 OXT          4.9820   -31.4950    28.7510 o          1 XXA      -0.727000
     13 H1           8.8190   -31.0800    26.5590 hn         1 XXA       0.358000
     14 HA           7.3960   -30.9280    28.4060 h1         1 XXA       0.033700
     15 HB           6.0100   -29.0900    27.8960 h1         1 XXA       0.051700
     16 HE           6.9410   -26.2210    28.4270 ha         1 XXA       0.167000
     17 HH           4.8000   -25.1990    29.1660 ha         1 XXA       0.164000
     18 HN           8.4250   -32.3650    24.5690 h1         1 XXA       0.016367
     19 HNA          6.6910   -32.3560    24.9370 h1         1 XXA       0.016367
     20 H8           7.5400   -30.8330    24.5750 h1         1 XXA       0.016367
     21 HT           2.4810   -24.5280    28.6730 ha         1 XXA       0.156000
     22 HTA          2.6360   -25.1860    26.9450 ha         1 XXA       0.156000
     23 HZ           4.7910   -26.2220    26.2060 ha         1 XXA       0.168000
     24 HD1          9.2030   -29.5210    28.2850 hc         1 XXA       0.026700
     25 HD1A         9.5680   -27.8190    27.9940 hc         1 XXA       0.026700
     26 HD1B         8.1880   -28.2630    29.0220 hc         1 XXA       0.026700
     27 HD2          6.9970   -27.0990    25.4630 hc         1 XXA       0.038700
     28 HD2A         8.3530   -26.4950    26.3700 hc         1 XXA       0.038700
     29 HOG1         5.5760   -28.4770    25.7230 ho         1 XXA       0.417000
     30 HG2          8.4290   -28.9390    26.0420 hc         1 XXA       0.047700
     31 CD1          8.7490   -28.5370    28.1200 c3         1 XXA      -0.082100
     32 CN           7.6290   -31.8050    25.0770 c3         1 XXA       0.174100
     33 CE           6.5000   -26.4120    27.4460 c2         1 XXA      -0.180200
@<TRIPOS>BOND
     1     1     3 1   
     2     1     4 1   
     3     1    12 1   
     4     2     4 1   
     5     2    13 1   
     6     2    32 1   
     7     4     5 1   
     8     4    14 1   
     9     5    10 1   
    10     5    11 1   
    11     5    15 1   
    12     6     7 2   
    13     6     8 1   
    14     6    17 1   
    15     7    21 1   
    16     7    22 1   
    17     8    23 1   
    18     8    33 2   
    19     9    11 1   
    20     9    27 1   
    21     9    28 1   
    22     9    33 1   
    23    10    29 1   
    24    11    30 1   
    25    11    31 1   
    26    16    33 1   
    27    18    32 1   
    28    19    32 1   
    29    20    32 1   
    30    24    31 1   
    31    25    31 1   
    32    26    31 1   
@<TRIPOS>SUBSTRUCTURE
     1 XXA         1 TEMP              0 ****  ****    0 ROOT
