@<TRIPOS>MOLECULE
XXA
   33    32     1     0     0
SMALL
abcg2


@<TRIPOS>ATOM
      1 C            5.7090   -31.7880    27.7150 c          1 XXA       0.739000
      2 N            7.8870   -31.6010    26.4530 n7         1 XXA      -0.840400
      3 O            5.5020   -32.8350    27.0760 o          1 XXA      -0.727000
      4 CA           7.0010   -30.9750    27.4190 c3         1 XXA       0.050500
      5 CB           6.6350   -29.4980    27.1810 c3         1 XXA       0.154300
      6 CH           4.3500   -25.4450    28.0670 ce         1 XXA      -0.161000
      7 CT           3.1330   -25.0000    27.7490 c2         1 XXA      -0.329000
      8 CZ           5.2600   -26.0720    27.1220 ce         1 XXA      -0.215000
      9 CD2          7.4180   -27.1780    26.4860 c3         1 XXA      -0.047200
     10 OG1          5.6800   -29.4380    26.1360 oh         1 XXA      -0.641000
     11 CG2          7.8490   -28.5990    26.9020 c3         1 XXA      -0.094700
     12 OXT          4.9890   -31.3190    28.6220 o          1 XXA      -0.727000
     13 H1           8.8180   -31.2220    26.5670 hn         1 XXA       0.358000
     14 HA           7.5610   -30.9880    28.3610 h1         1 XXA       0.033700
     15 HB           6.1790   -29.1450    28.1150 h1         1 XXA       0.051700
     16 HE           6.8160   -26.4090    28.4720 ha         1 XXA       0.167000
     17 HH           4.7040   -25.3460    29.0890 ha         1 XXA       0.164000
     18 HN           8.2500   -32.1430    24.4810 h1         1 XXA       0.016367
     19 HNA          6.5490   -31.9940    24.8980 h1         1 XXA       0.016367
     20 H8           7.5140   -30.5480    24.6030 h1         1 XXA       0.016367
     21 HT           2.4870   -24.5420    28.4860 ha         1 XXA       0.156000
     22 HTA          2.7430   -25.0820    26.7410 ha         1 XXA       0.156000
     23 HZ           4.9090   -26.1680    26.0960 ha         1 XXA       0.168000
     24 HD1          9.2350   -29.5310    28.3090 hc         1 XXA       0.026700
     25 HD1A         9.6080   -27.8570    27.9340 hc         1 XXA       0.026700
     26 HD1B         8.2700   -28.2410    29.0130 hc         1 XXA       0.026700
     27 HD2          6.9700   -27.2000    25.4900 hc         1 XXA       0.038700
     28 HD2A         8.3240   -26.5690    26.3980 hc         1 XXA       0.038700
     29 HOG1         5.1740   -28.6260    26.2360 ho         1 XXA       0.417000
     30 HG2          8.4090   -29.0050    26.0520 hc         1 XXA       0.047700
     31 CD1          8.7890   -28.5570    28.1050 c3         1 XXA      -0.082100
     32 CN           7.5300   -31.5490    25.0480 c3         1 XXA       0.174100
     33 CE           6.4780   -26.5210    27.4440 c2         1 XXA      -0.180200
@<TRIPOS>BOND
     1     1     3 1   
     2     1     4 1   
     3     1    12 1   
     4     2     4 1   
     5     2    13 1   
     6     2    32 1   
     7     4     5 1   
     8     4    14 1   
     9     5    10 1   
    10     5    11 1   
    11     5    15 1   
    12     6     7 2   
    13     6     8 1   
    14     6    17 1   
    15     7    21 1   
    16     7    22 1   
    17     8    23 1   
    18     8    33 2   
    19     9    11 1   
    20     9    27 1   
    21     9    28 1   
    22     9    33 1   
    23    10    29 1   
    24    11    30 1   
    25    11    31 1   
    26    16    33 1   
    27    18    32 1   
    28    19    32 1   
    29    20    32 1   
    30    24    31 1   
    31    25    31 1   
    32    26    31 1   
@<TRIPOS>SUBSTRUCTURE
     1 XXA         1 TEMP              0 ****  ****    0 ROOT
