@<TRIPOS>MOLECULE
XXB
   23    23     1     0     0
SMALL
abcg2


@<TRIPOS>ATOM
      1 C1          13.6160    14.1740    15.8130 c          1 XXB       0.728600
      2 N1          11.1190    14.6800    15.4640 na         1 XXB       0.134800
      3 O1          13.4380    12.9590    16.0790 o          1 XXB      -0.713500
      4 C2          12.4020    15.0720    15.7090 cc         1 XXB      -0.164600
      5 N2          10.2670    15.7230    15.4310 nc         1 XXB      -0.596800
      6 O2          14.7160    14.7510    15.6390 o          1 XXB      -0.713500
      7 C3          12.3580    16.4530    15.8490 cd         1 XXB      -0.250000
      8 C4          11.0130    16.8010    15.6760 cd         1 XXB       0.208900
      9 C6          10.3020    13.1810    13.6310 c3         1 XXB      -0.083400
     10 C7          11.5020    13.3380    12.6870 c3         1 XXB      -0.071400
     11 C8          11.8080    14.7800    12.2770 c3         1 XXB      -0.086100
     12 H3          13.1940    17.0970    16.0610 ha         1 XXB       0.138000
     13 H4          10.5520    17.7760    15.7220 h4         1 XXB       0.002100
     14 H5          11.3640    12.6470    15.4410 h1         1 XXB       0.074200
     15 H5A          9.7020    13.2020    15.7040 h1         1 XXB       0.074200
     16 H6           9.8890    12.1740    13.5290 hc         1 XXB       0.031200
     17 H6A          9.5080    13.8740    13.3350 hc         1 XXB       0.031200
     18 H7          12.3860    12.8870    13.1490 hc         1 XXB       0.037700
     19 H7A         11.3040    12.7580    11.7810 hc         1 XXB       0.037700
     20 H8          12.6420    14.8140    11.5730 hc         1 XXB       0.032033
     21 H8A         10.9410    15.2300    11.7880 hc         1 XXB       0.032033
     22 H8B         12.0700    15.4040    13.1320 hc         1 XXB       0.032033
     23 C5          10.6090    13.3570    15.1180 c3         1 XXB       0.083600
@<TRIPOS>BOND
     1     1     3 1   
     2     1     4 1   
     3     1     6 1   
     4     2     4 1   
     5     2     5 1   
     6     2    23 1   
     7     4     7 2   
     8     5     8 2   
     9     7     8 1   
    10     7    12 1   
    11     8    13 1   
    12     9    10 1   
    13     9    16 1   
    14     9    17 1   
    15     9    23 1   
    16    10    11 1   
    17    10    18 1   
    18    10    19 1   
    19    11    20 1   
    20    11    21 1   
    21    11    22 1   
    22    14    23 1   
    23    15    23 1   
@<TRIPOS>SUBSTRUCTURE
     1 XXB         1 TEMP              0 ****  ****    0 ROOT
