@<TRIPOS>MOLECULE
XXB
   23    23     1     0     0
SMALL
No Charge or Current Charge


@<TRIPOS>ATOM
      1 C1          13.7220    14.4080    15.8170 c          1 XXB       0.728600
      2 N1          11.1260    14.7620    15.4310 na         1 XXB       0.134800
      3 O1          13.7350    13.2140    15.5630 o          1 XXB      -0.713500
      4 C2          12.4330    15.1570    15.7520 cc         1 XXB      -0.164600
      5 N2          10.2050    15.7980    15.5000 nc         1 XXB      -0.596800
      6 O2          14.7350    15.0170    16.1290 o          1 XXB      -0.713500
      7 C3          12.2920    16.4990    16.0110 cd         1 XXB      -0.250000
      8 C4          10.9390    16.8340    15.8450 cd         1 XXB       0.208900
      9 C6          10.2200    13.2020    13.6060 c3         1 XXB      -0.083400
     10 C7          11.3640    13.1900    12.5610 c3         1 XXB      -0.071400
     11 C8          11.9460    14.5750    12.2060 c3         1 XXB      -0.086100
     12 H3          13.0830    17.1850    16.2950 ha         1 XXB       0.138000
     13 H4          10.4700    17.8020    15.9690 h4         1 XXB       0.002100
     14 H5          11.3980    12.6580    15.3530 h1         1 XXB       0.074200
     15 H5A          9.7730    13.2020    15.7190 h1         1 XXB       0.074200
     16 H6           9.7080    12.2330    13.5470 hc         1 XXB       0.031200
     17 H6A          9.4730    13.9550    13.3280 hc         1 XXB       0.031200
     18 H7          12.1710    12.5310    12.9050 hc         1 XXB       0.037700
     19 H7A         10.9750    12.7440    11.6370 hc         1 XXB       0.037700
     20 H8          12.6350    14.4880    11.3580 hc         1 XXB       0.032033
     21 H8A         11.1480    15.2720    11.9260 hc         1 XXB       0.032033
     22 H8B         12.5050    15.0030    13.0440 hc         1 XXB       0.032033
     23 C5          10.6450    13.4050    15.0850 c3         1 XXB       0.083600
@<TRIPOS>BOND
     1     1     3 1   
     2     1     4 1   
     3     1     6 1   
     4     2     4 1   
     5     2     5 1   
     6     2    23 1   
     7     4     7 2   
     8     5     8 2   
     9     7     8 1   
    10     7    12 1   
    11     8    13 1   
    12     9    10 1   
    13     9    16 1   
    14     9    17 1   
    15     9    23 1   
    16    10    11 1   
    17    10    18 1   
    18    10    19 1   
    19    11    20 1   
    20    11    21 1   
    21    11    22 1   
    22    14    23 1   
    23    15    23 1   
@<TRIPOS>SUBSTRUCTURE
     1 XXB         1 TEMP              0 ****  ****    0 ROOT
