@<TRIPOS>MOLECULE
XXC
   32    32     1     0     0
SMALL
No Charge or Current Charge


@<TRIPOS>ATOM
      1 O2          -6.0820    -0.4900    -1.0030 o          1 XXC      -0.743500
      2 C10         -5.5830     0.1010    -0.0570 c          1 XXC       0.717000
      3 O1          -6.0930     0.1520     1.0530 o          1 XXC      -0.743500
      4 C6          -4.2110     0.7690    -0.2580 c3         1 XXC      -0.204400
      5 C4          -3.0760    -0.2350     0.0620 c3         1 XXC      -0.053400
      6 C2          -1.6640     0.3660    -0.1180 c3         1 XXC      -0.079400
      7 C1          -0.5340    -0.6370     0.2010 c3         1 XXC      -0.076400
      8 C3           0.8770    -0.0360     0.0210 c3         1 XXC      -0.073400
      9 C5           2.0090    -1.0370     0.3390 c3         1 XXC      -0.036100
     10 C7           3.3890    -0.4190     0.1540 ca         1 XXC      -0.065300
     11 C9           4.0260     0.2330     1.2280 ca         1 XXC      -0.109000
     12 C12          5.2980     0.8070     1.0550 ca         1 XXC      -0.113000
     13 C13          5.9390     0.7330    -0.1920 ca         1 XXC      -0.122000
     14 C11          5.3080     0.0850    -1.2680 ca         1 XXC      -0.113000
     15 C8           4.0360    -0.4880    -1.0950 ca         1 XXC      -0.109000
     16 H2          -4.0720     1.0540    -1.3080 hc         1 XXC       0.014700
     17 H3          -4.0820     1.6010     0.4460 hc         1 XXC       0.014700
     18 H4          -3.1870    -0.5880     1.0950 hc         1 XXC       0.037700
     19 H5          -3.1780    -1.1130    -0.5880 hc         1 XXC       0.037700
     20 H6          -1.5510     0.7180    -1.1510 hc         1 XXC       0.024700
     21 H7          -1.5600     1.2430     0.5330 hc         1 XXC       0.024700
     22 H8          -0.6460    -0.9890     1.2340 hc         1 XXC       0.033700
     23 H9          -0.6370    -1.5150    -0.4500 hc         1 XXC       0.033700
     24 H10          0.9910     0.3160    -1.0120 hc         1 XXC       0.037700
     25 H11          0.9820     0.8410     0.6710 hc         1 XXC       0.037700
     26 H12          1.8930    -1.3960     1.3690 hc         1 XXC       0.045200
     27 H13          1.9020    -1.9180    -0.3050 hc         1 XXC       0.045200
     28 H14          3.5340     0.2970     2.1960 ha         1 XXC       0.112000
     29 H15          5.7850     1.3090     1.8880 ha         1 XXC       0.105000
     30 H16          6.9230     1.1770    -0.3260 ha         1 XXC       0.104000
     31 H17          5.8030     0.0290    -2.2350 ha         1 XXC       0.105000
     32 H18          3.5530    -0.9850    -1.9340 ha         1 XXC       0.112000
@<TRIPOS>BOND
     1     1     2 1   
     2     2     3 1   
     3     2     4 1   
     4     4     5 1   
     5     4    16 1   
     6     4    17 1   
     7     5     6 1   
     8     5    18 1   
     9     5    19 1   
    10     6     7 1   
    11     6    20 1   
    12     6    21 1   
    13     7     8 1   
    14     7    22 1   
    15     7    23 1   
    16     8     9 1   
    17     8    24 1   
    18     8    25 1   
    19     9    10 1   
    20     9    26 1   
    21     9    27 1   
    22    10    11 ar  
    23    10    15 ar  
    24    11    12 ar  
    25    11    28 1   
    26    12    13 ar  
    27    12    29 1   
    28    13    14 ar  
    29    13    30 1   
    30    14    15 ar  
    31    14    31 1   
    32    15    32 1   
@<TRIPOS>SUBSTRUCTURE
     1 XXC         1 TEMP              0 ****  ****    0 ROOT
