@<TRIPOS>MOLECULE
XXC
   32    32     1     0     0
SMALL
abcg2


@<TRIPOS>ATOM
      1 O2          -5.7420    -1.0270     0.0730 o          1 XXC      -0.743500
      2 C10         -5.5750     0.2080     0.0290 c          1 XXC       0.717000
      3 O1          -6.4760     1.0740     0.0140 o          1 XXC      -0.743500
      4 C6          -4.1320     0.7410    -0.0130 c3         1 XXC      -0.204400
      5 C4          -3.0250    -0.2990     0.0300 c3         1 XXC      -0.053400
      6 C2          -1.6350     0.3270     0.0020 c3         1 XXC      -0.079400
      7 C1          -0.5070    -0.6950     0.0680 c3         1 XXC      -0.076400
      8 C3           0.8760    -0.0600     0.0170 c3         1 XXC      -0.073400
      9 C5           2.0050    -1.0870     0.1320 c3         1 XXC      -0.036100
     10 C7           3.3670    -0.4570     0.0450 ca         1 XXC      -0.065300
     11 C9           3.8760     0.2810     1.1140 ca         1 XXC      -0.109000
     12 C12          5.1160     0.8970     1.0290 ca         1 XXC      -0.113000
     13 C13          5.8740     0.7850    -0.1310 ca         1 XXC      -0.122000
     14 C11          5.3800     0.0520    -1.2010 ca         1 XXC      -0.113000
     15 C8           4.1360    -0.5610    -1.1110 ca         1 XXC      -0.109000
     16 H2          -4.0230     1.3550    -0.9160 hc         1 XXC       0.014700
     17 H3          -4.0060     1.4440     0.8190 hc         1 XXC       0.014700
     18 H4          -3.1260    -0.9120     0.9310 hc         1 XXC       0.037700
     19 H5          -3.1270    -0.9880    -0.8140 hc         1 XXC       0.037700
     20 H6          -1.5250     0.9300    -0.9070 hc         1 XXC       0.024700
     21 H7          -1.5330     1.0280     0.8390 hc         1 XXC       0.024700
     22 H8          -0.6040    -1.2850     0.9870 hc         1 XXC       0.033700
     23 H9          -0.6110    -1.4070    -0.7590 hc         1 XXC       0.033700
     24 H10          0.9880     0.4990    -0.9180 hc         1 XXC       0.037700
     25 H11          0.9730     0.6740     0.8240 hc         1 XXC       0.037700
     26 H12          1.9040    -1.6200     1.0820 hc         1 XXC       0.045200
     27 H13          1.8940    -1.8350    -0.6570 hc         1 XXC       0.045200
     28 H14          3.2940     0.3700     2.0240 ha         1 XXC       0.112000
     29 H15          5.4940     1.4650     1.8710 ha         1 XXC       0.105000
     30 H16          6.8420     1.2650    -0.1990 ha         1 XXC       0.104000
     31 H17          5.9630    -0.0430    -2.1080 ha         1 XXC       0.105000
     32 H18          3.7580    -1.1330    -1.9520 ha         1 XXC       0.112000
@<TRIPOS>BOND
     1     1     2 1   
     2     2     3 1   
     3     2     4 1   
     4     4     5 1   
     5     4    16 1   
     6     4    17 1   
     7     5     6 1   
     8     5    18 1   
     9     5    19 1   
    10     6     7 1   
    11     6    20 1   
    12     6    21 1   
    13     7     8 1   
    14     7    22 1   
    15     7    23 1   
    16     8     9 1   
    17     8    24 1   
    18     8    25 1   
    19     9    10 1   
    20     9    26 1   
    21     9    27 1   
    22    10    11 ar  
    23    10    15 ar  
    24    11    12 ar  
    25    11    28 1   
    26    12    13 ar  
    27    12    29 1   
    28    13    14 ar  
    29    13    30 1   
    30    14    15 ar  
    31    14    31 1   
    32    15    32 1   
@<TRIPOS>SUBSTRUCTURE
     1 XXC         1 TEMP              0 ****  ****    0 ROOT
