@<TRIPOS>MOLECULE
XXD
   20    19     1     0     0
SMALL
No Charge or Current Charge


@<TRIPOS>ATOM
      1 O1           3.5220     0.0610    -0.0370 oh         1 XXD      -0.643000
      2 O5          -3.9500    -0.2150    -0.3780 oh         1 XXD      -0.659000
      3 O7           1.1810    -1.4080     0.4080 oh         1 XXD      -0.637000
      4 C10         -2.8400     0.5080     0.1610 c3         1 XXD       0.163600
      5 C11          2.3050     0.7400     0.3150 c3         1 XXD       0.129600
      6 C13          1.0740    -0.0880    -0.1450 c3         1 XXD       0.167300
      7 C14         -0.2670     0.5540     0.2880 c3         1 XXD      -0.111400
      8 C15         -1.5220    -0.1760    -0.2530 c3         1 XXD      -0.077400
      9 HO1          4.2670     0.6470     0.2260 ho         1 XXD       0.441000
     10 HO5         -4.7640     0.2540    -0.0880 ho         1 XXD       0.442000
     11 HO7          2.1460    -1.5980     0.4060 ho         1 XXD       0.435000
     12 H10         -2.8450     1.5420    -0.2090 h1         1 XXD       0.013200
     13 H10A        -2.9030     0.5390     1.2570 h1         1 XXD       0.013200
     14 H11          2.2570     0.8950     1.4010 h1         1 XXD       0.017200
     15 H11A         2.2710     1.7280    -0.1640 h1         1 XXD       0.017200
     16 H13          1.0970    -0.1350    -1.2430 h1         1 XXD       0.085700
     17 H14         -0.3140     0.5920     1.3840 hc         1 XXD       0.039700
     18 H14A        -0.2870     1.5930    -0.0640 hc         1 XXD       0.039700
     19 H15         -1.5300    -1.2110     0.1110 hc         1 XXD       0.061700
     20 H15A        -1.4700    -0.2210    -1.3480 hc         1 XXD       0.061700
@<TRIPOS>BOND
     1     1     5 1   
     2     1     9 1   
     3     2     4 1   
     4     2    10 1   
     5     3     6 1   
     6     3    11 1   
     7     4     8 1   
     8     4    12 1   
     9     4    13 1   
    10     5     6 1   
    11     5    14 1   
    12     5    15 1   
    13     6     7 1   
    14     6    16 1   
    15     7     8 1   
    16     7    17 1   
    17     7    18 1   
    18     8    19 1   
    19     8    20 1   
@<TRIPOS>SUBSTRUCTURE
     1 XXD         1 TEMP              0 ****  ****    0 ROOT
