@<TRIPOS>MOLECULE
XXD
   20    19     1     0     0
SMALL
bcc


@<TRIPOS>ATOM
      1 O1           3.4620     0.2090    -0.3610 oh         1 XXD      -0.580800
      2 O5          -3.8380    -0.2060    -0.2520 oh         1 XXD      -0.596800
      3 O7           1.2200    -1.4560     0.1070 oh         1 XXD      -0.574800
      4 C10         -2.7160     0.4910     0.2470 c3         1 XXD       0.140400
      5 C11          2.2890     0.7250     0.2200 c3         1 XXD       0.106400
      6 C13          1.0960    -0.0950    -0.2420 c3         1 XXD       0.144100
      7 C14         -0.2040     0.5180     0.2700 c3         1 XXD      -0.111400
      8 C15         -1.4520    -0.1910    -0.2370 c3         1 XXD      -0.077400
      9 HO1          4.1970     0.7680    -0.0920 ho         1 XXD       0.402000
     10 HO5         -4.6300     0.2560     0.0350 ho         1 XXD       0.403000
     11 HO7          1.2290    -1.5240     1.0680 ho         1 XXD       0.396000
     12 H10         -2.7130     1.5370    -0.0890 h1         1 XXD       0.013200
     13 H10A        -2.7170     0.5150     1.3460 h1         1 XXD       0.013200
     14 H11          2.3360     0.7030     1.3200 h1         1 XXD       0.017200
     15 H11A         2.1200     1.7710    -0.0660 h1         1 XXD       0.017200
     16 H13          1.0780    -0.0760    -1.3370 h1         1 XXD       0.085700
     17 H14         -0.1990     0.5230     1.3670 hc         1 XXD       0.039700
     18 H14A        -0.2360     1.5690    -0.0330 hc         1 XXD       0.039700
     19 H15         -1.4490    -1.2330     0.0890 hc         1 XXD       0.061700
     20 H15A        -1.4460    -0.2020    -1.3320 hc         1 XXD       0.061700
@<TRIPOS>BOND
     1     1     5 1   
     2     1     9 1   
     3     2     4 1   
     4     2    10 1   
     5     3     6 1   
     6     3    11 1   
     7     4     8 1   
     8     4    12 1   
     9     4    13 1   
    10     5     6 1   
    11     5    14 1   
    12     5    15 1   
    13     6     7 1   
    14     6    16 1   
    15     7     8 1   
    16     7    17 1   
    17     7    18 1   
    18     8    19 1   
    19     8    20 1   
@<TRIPOS>SUBSTRUCTURE
     1 XXD         1 TEMP              0 ****  ****    0 ROOT
