@<TRIPOS>MOLECULE
XXE
   21    22     1     0     0
SMALL
abcg2


@<TRIPOS>ATOM
      1 OAM          2.6750    -2.0110    -0.2290 o          1 XXE      -0.696000
      2 CAL          2.9420    -0.7950    -0.1750 c          1 XXE       0.611500
      3 OAN          4.0610    -0.2620    -0.2070 o          1 XXE      -0.696000
      4 CAH          1.7370     0.1470    -0.0580 ca         1 XXE       0.303500
      5 CAG          0.4530    -0.3820    -0.0680 ca         1 XXE      -0.157000
      6 NAI          1.9730     1.4530     0.0410 nb         1 XXE      -0.632000
      7 CAJ          0.9260     2.2600     0.1300 ca         1 XXE       0.322900
      8 CAK         -0.3910     1.8360     0.1320 ca         1 XXE      -0.222000
      9 CAF         -0.6410     0.4700     0.0290 ca         1 XXE       0.007800
     10 NAA         -1.9490    -0.0260     0.0250 na         1 XXE       0.134200
     11 CAB         -3.0870     0.7140    -0.1990 cc         1 XXE      -0.180000
     12 CAC         -4.1630    -0.1220    -0.1380 cd         1 XXE      -0.199500
     13 CAD         -3.6690    -1.4280     0.1380 cd         1 XXE      -0.199500
     14 CAE         -2.3110    -1.3370     0.2280 cc         1 XXE      -0.180000
     15 HAG          0.3380    -1.4510    -0.1650 ha         1 XXE       0.150000
     16 HAJ          1.1360     3.3220     0.2120 h4         1 XXE      -0.005900
     17 HAK         -1.1810     2.5670     0.2220 ha         1 XXE       0.103000
     18 HAB         -3.0450     1.7690    -0.4090 h4         1 XXE       0.149000
     19 HAC         -5.1920     0.1660    -0.2810 ha         1 XXE       0.118500
     20 HAD         -4.2490    -2.3280     0.2620 ha         1 XXE       0.118500
     21 HAE         -1.5820    -2.0970     0.4520 h4         1 XXE       0.149000
@<TRIPOS>BOND
     1     1     2 1   
     2     2     3 1   
     3     2     4 1   
     4     4     5 ar  
     5     4     6 ar  
     6     5     9 ar  
     7     5    15 1   
     8     6     7 ar  
     9     7     8 ar  
    10     7    16 1   
    11     8     9 ar  
    12     8    17 1   
    13     9    10 1   
    14    10    11 1   
    15    10    14 1   
    16    11    12 2   
    17    11    18 1   
    18    12    13 1   
    19    12    19 1   
    20    13    14 2   
    21    13    20 1   
    22    14    21 1   
@<TRIPOS>SUBSTRUCTURE
     1 XXE         1 TEMP              0 ****  ****    0 ROOT
