@<TRIPOS>MOLECULE
XXE
   21    22     1     0     0
SMALL
No Charge or Current Charge


@<TRIPOS>ATOM
      1 OAM          2.7600    -1.9950    -0.5410 o          1 XXE      -0.696000
      2 CAL          2.9690    -0.8020    -0.3400 c          1 XXE       0.611500
      3 OAN          4.1090    -0.3450    -0.3150 o          1 XXE      -0.696000
      4 CAH          1.7580     0.1470    -0.1110 ca         1 XXE       0.303500
      5 CAG          0.4420    -0.3770    -0.1430 ca         1 XXE      -0.157000
      6 NAI          1.9730     1.4800     0.1170 nb         1 XXE      -0.632000
      7 CAJ          0.9120     2.2890     0.3090 ca         1 XXE       0.322900
      8 CAK         -0.4120     1.8310     0.2880 ca         1 XXE      -0.222000
      9 CAF         -0.6680     0.4670     0.0580 ca         1 XXE       0.007800
     10 NAA         -1.9760    -0.0330     0.0290 na         1 XXE       0.134200
     11 CAB         -3.0620     0.6790    -0.4760 cc         1 XXE      -0.180000
     12 CAC         -4.1280    -0.1670    -0.3130 cd         1 XXE      -0.199500
     13 CAD         -3.6830    -1.3700     0.2840 cd         1 XXE      -0.199500
     14 CAE         -2.3320    -1.2940     0.5030 cc         1 XXE      -0.180000
     15 HAG          0.2930    -1.4350    -0.3370 ha         1 XXE       0.150000
     16 HAJ          1.1320     3.3400     0.4890 h4         1 XXE      -0.005900
     17 HAK         -1.2210     2.5340     0.4600 ha         1 XXE       0.103000
     18 HAB         -2.9870     1.6750    -0.8950 h4         1 XXE       0.149000
     19 HAC         -5.1530     0.0540    -0.6000 ha         1 XXE       0.118500
     20 HAD         -4.3110    -2.2210     0.5330 ha         1 XXE       0.118500
     21 HAE         -1.6320    -1.9930     0.9420 h4         1 XXE       0.149000
@<TRIPOS>BOND
     1     1     2 1   
     2     2     3 1   
     3     2     4 1   
     4     4     5 ar  
     5     4     6 ar  
     6     5     9 ar  
     7     5    15 1   
     8     6     7 ar  
     9     7     8 ar  
    10     7    16 1   
    11     8     9 ar  
    12     8    17 1   
    13     9    10 1   
    14    10    11 1   
    15    10    14 1   
    16    11    12 2   
    17    11    18 1   
    18    12    13 1   
    19    12    19 1   
    20    13    14 2   
    21    13    20 1   
    22    14    21 1   
@<TRIPOS>SUBSTRUCTURE
     1 XXE         1 TEMP              0 ****  ****    0 ROOT
