@<TRIPOS>MOLECULE
XXF
   53    57     1     0     0
SMALL
abcg2


@<TRIPOS>ATOM
      1 N1          42.6640   -13.1040   -74.4520 nb         1 XXF      -0.279000
      2 C7          42.2610   -11.0550   -70.8260 c6         1 XXF       0.174000
      3 C8          42.5320   -11.5580   -72.2450 c6         1 XXF       0.176800
      4 N2          43.1450   -15.0350   -75.7460 nb         1 XXF      -0.210000
      5 C9          41.1620   -11.8760   -70.1440 c6         1 XXF      -0.079900
      6 O1          43.4680   -11.0580   -70.0720 os         1 XXF      -0.452000
      7 C1          42.6930   -13.8100   -75.5790 ca         1 XXF       0.174900
      8 C5          44.3970   -12.8240   -71.4380 c6         1 XXF       0.163800
      9 C6          44.1280   -12.3020   -70.0430 c6         1 XXF       0.153600
     10 N3          43.1510   -12.8720   -72.1980 nh         1 XXF      -0.750300
     11 C4          43.0990   -13.6530   -73.3200 ca         1 XXF       0.410900
     12 C3          43.4760   -15.0140   -73.3290 ca         1 XXF      -0.210800
     13 C2          43.5140   -15.6030   -74.6020 ca         1 XXF       0.144500
     14 N4          40.3320    -9.9160   -68.9360 n3         1 XXF      -0.720600
     15 N5          43.9470   -16.8810   -74.4640 na         1 XXF      -0.311400
     16 N6          46.7870   -16.8890   -67.2760 n1         1 XXF      -0.450000
     17 C10         40.7680   -11.2930   -68.7980 c6         1 XXF       0.170800
     18 C11         41.3750    -9.0860   -69.5080 c6         1 XXF       0.170800
     19 C12         41.8000    -9.6010   -70.8750 c6         1 XXF      -0.079900
     20 C13         39.8590    -9.3820   -67.6810 c3         1 XXF       0.154100
     21 C14         43.8500   -16.0270   -72.3810 cc         1 XXF      -0.043400
     22 C15         44.1360   -17.1310   -73.1360 cd         1 XXF       0.107900
     23 C16         43.7710   -15.9890   -70.9170 ca         1 XXF      -0.024800
     24 C17         44.8580   -16.3350   -70.1220 ca         1 XXF      -0.063000
     25 C18         44.7430   -16.2950   -68.7330 ca         1 XXF      -0.023000
     26 C19         43.5470   -15.9180   -68.1230 ca         1 XXF      -0.070000
     27 C20         42.4660   -15.5800   -68.9190 ca         1 XXF      -0.121000
     28 C21         42.5770   -15.6130   -70.3010 ca         1 XXF      -0.064000
     29 C22         45.8740   -16.6270   -67.9280 cg         1 XXF       0.322000
     30 H1          43.1760   -10.8400   -72.7720 h1         1 XXF       0.064200
     31 H2          41.5910   -11.6120   -72.7900 h1         1 XXF       0.064200
     32 H3          40.2850   -11.8770   -70.7980 hc         1 XXF       0.055700
     33 H4          41.4500   -12.9210   -70.0190 hc         1 XXF       0.055700
     34 H5          42.3230   -13.3030   -76.4650 h5         1 XXF       0.051100
     35 H6          44.8590   -13.8050   -71.3720 h1         1 XXF       0.056700
     36 H7          45.1070   -12.1630   -71.9520 h1         1 XXF       0.056700
     37 H8          43.5650   -13.0480   -69.4720 h1         1 XXF       0.054700
     38 H9          45.0780   -12.1460   -69.5280 h1         1 XXF       0.054700
     39 H11         44.0530   -17.5500   -75.2120 hn         1 XXF       0.378000
     40 H12         39.9430   -11.8790   -68.3840 h1         1 XXF       0.034950
     41 H13         41.6040   -11.3870   -68.0830 h1         1 XXF       0.034950
     42 H14         42.2510    -9.0190   -68.8410 h1         1 XXF       0.034950
     43 H15         40.9900    -8.0690   -69.6160 h1         1 XXF       0.034950
     44 H16         42.5970    -8.9700   -71.2760 hc         1 XXF       0.055700
     45 H17         40.9530    -9.5290   -71.5640 hc         1 XXF       0.055700
     46 H18         39.0390    -9.9920   -67.2990 h1         1 XXF       0.029700
     47 H19         40.6360    -9.3400   -66.9010 h1         1 XXF       0.029700
     48 H20         39.4800    -8.3680   -67.8230 h1         1 XXF       0.029700
     49 H21         45.8000   -16.6130   -70.5760 ha         1 XXF       0.130000
     50 H22         43.4690   -15.8890   -67.0450 ha         1 XXF       0.127000
     51 H23         41.5310   -15.2890   -68.4600 ha         1 XXF       0.123000
     52 H24         41.7220   -15.3530   -70.9120 ha         1 XXF       0.130000
     53 CL1         44.5840   -18.6840   -72.6150 cl         1 XXF      -0.117000
@<TRIPOS>BOND
     1     1     7 ar  
     2     1    11 ar  
     3     2     3 1   
     4     2     5 1   
     5     2     6 1   
     6     2    19 1   
     7     3    10 1   
     8     3    30 1   
     9     3    31 1   
    10     4     7 ar  
    11     4    13 ar  
    12     5    17 1   
    13     5    32 1   
    14     5    33 1   
    15     6     9 1   
    16     7    34 1   
    17     8     9 1   
    18     8    10 1   
    19     8    35 1   
    20     8    36 1   
    21     9    37 1   
    22     9    38 1   
    23    10    11 1   
    24    11    12 ar  
    25    12    13 ar  
    26    12    21 1   
    27    13    15 1   
    28    14    17 1   
    29    14    18 1   
    30    14    20 1   
    31    15    22 1   
    32    15    39 1   
    33    16    29 3   
    34    17    40 1   
    35    17    41 1   
    36    18    19 1   
    37    18    42 1   
    38    18    43 1   
    39    19    44 1   
    40    19    45 1   
    41    20    46 1   
    42    20    47 1   
    43    20    48 1   
    44    21    22 2   
    45    21    23 1   
    46    22    53 1   
    47    23    24 ar  
    48    23    28 ar  
    49    24    25 ar  
    50    24    49 1   
    51    25    26 ar  
    52    25    29 1   
    53    26    27 ar  
    54    26    50 1   
    55    27    28 ar  
    56    27    51 1   
    57    28    52 1   
@<TRIPOS>SUBSTRUCTURE
     1 XXF         1 TEMP              0 ****  ****    0 ROOT
