@<TRIPOS>MOLECULE
XXF
   53    57     1     0     0
SMALL
No Charge or Current Charge


@<TRIPOS>ATOM
      1 N1          42.9670   -13.0640   -74.6380 nb         1 XXF      -0.279000
      2 C7          42.2100   -11.0770   -70.7960 c6         1 XXF       0.174000
      3 C8          42.4150   -11.6350   -72.2520 c6         1 XXF       0.176800
      4 N2          43.3520   -15.1190   -75.8540 nb         1 XXF      -0.210000
      5 C9          41.1810   -11.9410   -70.0070 c6         1 XXF      -0.079900
      6 O1          43.4960   -11.0150   -70.1140 os         1 XXF      -0.452000
      7 C1          43.0370   -13.8070   -75.7660 ca         1 XXF       0.174900
      8 C5          44.4940   -12.7800   -71.5240 c6         1 XXF       0.163800
      9 C6          44.2390   -12.2600   -70.0830 c6         1 XXF       0.153600
     10 N3          43.2220   -12.9030   -72.3000 nh         1 XXF      -0.750300
     11 C4          43.2270   -13.6950   -73.4710 ca         1 XXF       0.410900
     12 C3          43.5290   -15.0720   -73.4880 ca         1 XXF      -0.210800
     13 C2          43.6020   -15.7440   -74.6900 ca         1 XXF       0.144500
     14 N4          40.3460    -9.9480   -68.7470 n3         1 XXF      -0.720600
     15 N5          43.9510   -17.0690   -74.4680 na         1 XXF      -0.311400
     16 N6          46.6480   -16.6890   -67.2150 n1         1 XXF      -0.450000
     17 C10         40.8710   -11.3350   -68.6200 c6         1 XXF       0.170800
     18 C11         41.3070    -9.0720   -69.4710 c6         1 XXF       0.170800
     19 C12         41.6410    -9.6340   -70.8750 c6         1 XXF      -0.079900
     20 C13         39.9410    -9.3800   -67.4430 c3         1 XXF       0.154100
     21 C14         43.8160   -16.0290   -72.4520 cc         1 XXF      -0.043400
     22 C15         44.0660   -17.2380   -73.0760 cd         1 XXF       0.107900
     23 C16         43.6740   -15.9360   -71.0030 ca         1 XXF      -0.024800
     24 C17         44.7610   -16.2340   -70.1590 ca         1 XXF      -0.063000
     25 C18         44.6200   -16.1540   -68.7590 ca         1 XXF      -0.023000
     26 C19         43.3800   -15.7850   -68.2030 ca         1 XXF      -0.070000
     27 C20         42.2910   -15.4950   -69.0430 ca         1 XXF      -0.121000
     28 C21         42.4410   -15.5640   -70.4390 ca         1 XXF      -0.064000
     29 C22         45.7350   -16.4520   -67.9050 cg         1 XXF       0.322000
     30 H1          42.9170   -10.8630   -72.8540 h1         1 XXF       0.064200
     31 H2          41.4270   -11.7990   -72.7070 h1         1 XXF       0.064200
     32 H3          40.2450   -12.0110   -70.5780 hc         1 XXF       0.055700
     33 H4          41.5320   -12.9700   -69.8940 hc         1 XXF       0.055700
     34 H5          42.8280   -13.2920   -76.7020 h5         1 XXF       0.051100
     35 H6          45.0210   -13.7410   -71.4670 h1         1 XXF       0.056700
     36 H7          45.1710   -12.0790   -72.0330 h1         1 XXF       0.056700
     37 H8          43.6920   -13.0110   -69.4980 h1         1 XXF       0.054700
     38 H9          45.2000   -12.0870   -69.5810 h1         1 XXF       0.054700
     39 H11         44.0620   -17.7890   -75.1720 hn         1 XXF       0.378000
     40 H12         40.1340   -11.9750   -68.1140 h1         1 XXF       0.034950
     41 H13         41.7840   -11.3470   -68.0060 h1         1 XXF       0.034950
     42 H14         42.2370    -8.9650   -68.8930 h1         1 XXF       0.034950
     43 H15         40.8850    -8.0630   -69.5890 h1         1 XXF       0.034950
     44 H16         42.3630    -8.9720   -71.3710 hc         1 XXF       0.055700
     45 H17         40.7330    -9.6220   -71.4930 hc         1 XXF       0.055700
     46 H18         39.1890   -10.0170   -66.9590 h1         1 XXF       0.029700
     47 H19         40.8040    -9.2920   -66.7690 h1         1 XXF       0.029700
     48 H20         39.5040    -8.3810   -67.5750 h1         1 XXF       0.029700
     49 H21         45.7150   -16.5210   -70.5940 ha         1 XXF       0.130000
     50 H22         43.2580   -15.7250   -67.1230 ha         1 XXF       0.127000
     51 H23         41.3330   -15.2130   -68.6120 ha         1 XXF       0.123000
     52 H24         41.5980   -15.3330   -71.0870 ha         1 XXF       0.130000
     53 Cl1         44.3710   -18.7800   -72.3390 cl         1 XXF      -0.117000
@<TRIPOS>BOND
     1     1     7 ar  
     2     1    11 ar  
     3     2     3 1   
     4     2     5 1   
     5     2     6 1   
     6     2    19 1   
     7     3    10 1   
     8     3    30 1   
     9     3    31 1   
    10     4     7 ar  
    11     4    13 ar  
    12     5    17 1   
    13     5    32 1   
    14     5    33 1   
    15     6     9 1   
    16     7    34 1   
    17     8     9 1   
    18     8    10 1   
    19     8    35 1   
    20     8    36 1   
    21     9    37 1   
    22     9    38 1   
    23    10    11 1   
    24    11    12 ar  
    25    12    13 ar  
    26    12    21 1   
    27    13    15 1   
    28    14    17 1   
    29    14    18 1   
    30    14    20 1   
    31    15    22 1   
    32    15    39 1   
    33    16    29 3   
    34    17    40 1   
    35    17    41 1   
    36    18    19 1   
    37    18    42 1   
    38    18    43 1   
    39    19    44 1   
    40    19    45 1   
    41    20    46 1   
    42    20    47 1   
    43    20    48 1   
    44    21    22 2   
    45    21    23 1   
    46    22    53 1   
    47    23    24 ar  
    48    23    28 ar  
    49    24    25 ar  
    50    24    49 1   
    51    25    26 ar  
    52    25    29 1   
    53    26    27 ar  
    54    26    50 1   
    55    27    28 ar  
    56    27    51 1   
    57    28    52 1   
@<TRIPOS>SUBSTRUCTURE
     1 XXF         1 TEMP              0 ****  ****    0 ROOT
