@<TRIPOS>MOLECULE
XXG
   18    18     1     0     0
SMALL
bcc


@<TRIPOS>ATOM
      1 O7          -3.5340     0.9290    -0.0220 o          1 XXG      -0.582100
      2 C1          -2.3350     0.7230    -0.0250 c          1 XXG       0.537300
      3 C2          -1.8580    -0.7450    -0.0090 c6         1 XXG       0.274800
      4 O13         -2.2870    -1.3570    -1.1860 oh         1 XXG      -0.594800
      5 O8          -2.3440    -1.3600     1.1420 oh         1 XXG      -0.594800
      6 C3          -0.3670    -0.9170     0.0240 c2         1 XXG      -0.007200
      7 C6          -1.3450     1.7860    -0.0490 ce         1 XXG      -0.317200
      8 C5          -0.0360     1.4950    -0.0320 cf         1 XXG       0.059000
      9 C4           0.4590     0.1240     0.0110 cf         1 XXG      -0.244100
     10 S9           2.2360    -0.0790     0.0440 s6         1 XXG       1.259700
     11 O12          2.4810    -1.5250     0.1330 o          1 XXG      -0.688533
     12 O10          2.6880     0.5290    -1.2180 o          1 XXG      -0.688533
     13 O11          2.6560     0.6740     1.2360 o          1 XXG      -0.688533
     14 HO13        -3.2180    -1.1490    -1.3440 ho         1 XXG       0.406500
     15 HO8         -3.2750    -1.1300     1.2690 ho         1 XXG       0.406500
     16 H5           0.6850     2.3030    -0.0460 ha         1 XXG       0.149000
     17 H3           0.0030    -1.9360     0.0560 ha         1 XXG       0.175000
     18 H6          -1.6940     2.8100    -0.0750 ha         1 XXG       0.137000
@<TRIPOS>BOND
     1     1     2 2   
     2     2     3 1   
     3     2     7 1   
     4     3     4 1   
     5     3     5 1   
     6     3     6 1   
     7     4    14 1   
     8     5    15 1   
     9     6     9 2   
    10     6    17 1   
    11     7     8 2   
    12     7    18 1   
    13     8     9 1   
    14     8    16 1   
    15     9    10 1   
    16    10    11 1   
    17    10    12 1   
    18    10    13 1   
@<TRIPOS>SUBSTRUCTURE
     1 XXG         1 TEMP              0 ****  ****    0 ROOT
