@<TRIPOS>MOLECULE
XXG
   18    18     1     0     0
SMALL
No Charge or Current Charge


@<TRIPOS>ATOM
      1 O7          -3.5920     0.9680     0.0810 o          1 XXG      -0.582100
      2 C1          -2.3910     0.7130     0.0640 c          1 XXG       0.537300
      3 C2          -1.8480    -0.7670    -0.1680 c6         1 XXG       0.321200
      4 O13         -2.3050    -1.2730    -1.4220 oh         1 XXG      -0.657000
      5 O8          -2.3530    -1.6440     0.8380 oh         1 XXG      -0.657000
      6 C3          -0.3260    -0.8470    -0.1490 c2         1 XXG      -0.057200
      7 C6          -1.3820     1.7860     0.2620 ce         1 XXG      -0.367200
      8 C5          -0.0450     1.5470     0.2510 cf         1 XXG       0.009000
      9 C4           0.5070     0.2130     0.0430 cf         1 XXG      -0.244100
     10 S9           2.3160    -0.0970     0.0300 s6         1 XXG       1.259700
     11 O12          2.4380    -1.0860     1.1110 o          1 XXG      -0.688533
     12 O10          2.4880    -0.6900    -1.3050 o          1 XXG      -0.688533
     13 O11          2.8930     1.2350     0.2610 o          1 XXG      -0.688533
     14 HO13        -3.2010    -0.8940    -1.5550 ho         1 XXG       0.445500
     15 HO8         -3.2560    -1.3220     1.0490 ho         1 XXG       0.445500
     16 H5           0.6470     2.3810     0.4020 ha         1 XXG       0.199000
     17 H3           0.0860    -1.8440    -0.3040 ha         1 XXG       0.225000
     18 H6          -1.7590     2.7950     0.4200 ha         1 XXG       0.187000
@<TRIPOS>BOND
     1     1     2 2   
     2     2     3 1   
     3     2     7 1   
     4     3     4 1   
     5     3     5 1   
     6     3     6 1   
     7     4    14 1   
     8     5    15 1   
     9     6     9 2   
    10     6    17 1   
    11     7     8 2   
    12     7    18 1   
    13     8     9 1   
    14     8    16 1   
    15     9    10 1   
    16    10    11 1   
    17    10    12 1   
    18    10    13 1   
@<TRIPOS>SUBSTRUCTURE
     1 XXG         1 TEMP              0 ****  ****    0 ROOT
