@<TRIPOS>MOLECULE
XXH
   16    16     1     0     0
SMALL
abcg2


@<TRIPOS>ATOM
      1 O3          -3.9710     0.5080     0.0040 o          1 XXH      -0.495100
      2 C4          -1.7260    -0.2600    -0.0090 ca         1 XXH      -0.160600
      3 C5          -3.1960    -0.4160    -0.0040 c          1 XXH       0.578500
      4 C6          -0.9330    -1.4020    -0.0200 ca         1 XXH      -0.073500
      5 C7           0.4480    -1.2970    -0.0250 ca         1 XXH      -0.060000
      6 C3          -1.1370     1.0020    -0.0010 ca         1 XXH      -0.073500
      7 C2           0.2390     1.1250    -0.0050 ca         1 XXH      -0.060000
      8 C1           1.0100    -0.0310    -0.0180 ca         1 XXH      -0.153200
      9 O1           3.1190    -0.9200    -0.0620 o          1 XXH      -0.391500
     10 O2           2.9370     1.2040     0.0110 o          1 XXH      -0.391500
     11 H1          -3.5490    -1.4610    -0.0090 h4         1 XXH       0.000200
     12 H2          -1.3910    -2.3830    -0.0250 ha         1 XXH       0.138500
     13 H3           1.0600    -2.1860    -0.0340 ha         1 XXH       0.156500
     14 H4          -1.7520     1.8920     0.0080 ha         1 XXH       0.138500
     15 H5           0.6950     2.1030     0.0020 ha         1 XXH       0.156500
     16 N1           2.4660     0.0940    -0.0230 no         1 XXH       0.690200
@<TRIPOS>BOND
     1     1     3 2   
     2     2     3 1   
     3     2     4 ar  
     4     2     6 ar  
     5     3    11 1   
     6     4     5 ar  
     7     4    12 1   
     8     5     8 ar  
     9     5    13 1   
    10     6     7 ar  
    11     6    14 1   
    12     7     8 ar  
    13     7    15 1   
    14     8    16 1   
    15     9    16 1   
    16    10    16 1   
@<TRIPOS>SUBSTRUCTURE
     1 XXH         1 TEMP              0 ****  ****    0 ROOT
