@<TRIPOS>MOLECULE
XXH
   16    16     1     0     0
SMALL
No Charge or Current Charge


@<TRIPOS>ATOM
      1 O3          -4.0390     0.5320     0.0090 o          1 XXH      -0.495100
      2 C4          -1.7660    -0.2740    -0.0080 ca         1 XXH      -0.160600
      3 C5          -3.2660    -0.4210    -0.0030 c          1 XXH       0.578500
      4 C6          -0.9490    -1.4220    -0.0230 ca         1 XXH      -0.073500
      5 C7           0.4520    -1.3020    -0.0280 ca         1 XXH      -0.060000
      6 C3          -1.1610     1.0010     0.0010 ca         1 XXH      -0.073500
      7 C2           0.2390     1.1260    -0.0030 ca         1 XXH      -0.060000
      8 C1           1.0620    -0.0250    -0.0180 ca         1 XXH      -0.153200
      9 O1           3.2360    -0.9300    -0.0360 o          1 XXH      -0.391500
     10 O2           3.0450     1.2440    -0.0140 o          1 XXH      -0.391500
     11 H1          -3.6520    -1.4640    -0.0120 h4         1 XXH       0.000200
     12 H2          -1.3970    -2.4140    -0.0310 ha         1 XXH       0.138500
     13 H3           1.0560    -2.2080    -0.0390 ha         1 XXH       0.156500
     14 H4          -1.7740     1.9000     0.0130 ha         1 XXH       0.138500
     15 H5           0.6760     2.1230     0.0050 ha         1 XXH       0.156500
     16 N1           2.5570     0.1060    -0.0230 no         1 XXH       0.690200
@<TRIPOS>BOND
     1     1     3 2   
     2     2     3 1   
     3     2     4 ar  
     4     2     6 ar  
     5     3    11 1   
     6     4     5 ar  
     7     4    12 1   
     8     5     8 ar  
     9     5    13 1   
    10     6     7 ar  
    11     6    14 1   
    12     7     8 ar  
    13     7    15 1   
    14     8    16 1   
    15     9    16 1   
    16    10    16 1   
@<TRIPOS>SUBSTRUCTURE
     1 XXH         1 TEMP              0 ****  ****    0 ROOT
