@<TRIPOS>MOLECULE
XXL
   30    31     1     0     0
SMALL
No Charge or Current Charge


@<TRIPOS>ATOM
      1 C           -2.0880    -0.2180     0.3130 c          1 XXL       0.574100
      2 N            0.3370    -0.7250    -0.2520 n          1 XXL      -0.200400
      3 O           -1.9020    -0.3840     1.5130 o          1 XXL      -0.476000
      4 CA          -1.0420    -0.5000    -0.7730 c3         1 XXL       0.033000
      5 CAA         -5.5160     1.0550    -0.1910 c3         1 XXL      -0.098100
      6 CAD          3.2080     2.4390    -0.0620 ca         1 XXL      -0.106000
      7 CAE          1.8380     2.7450    -0.0990 ca         1 XXL      -0.104000
      8 CAF          3.6240     1.0980    -0.0520 ca         1 XXL      -0.102000
      9 CAG          0.8820     1.7150    -0.1680 ca         1 XXL      -0.117000
     10 CAI          2.1730    -2.1770     0.5870 c6         1 XXL       0.077600
     11 OAK         -3.2590     0.2460    -0.2290 os         1 XXL      -0.451100
     12 OAL          3.0980    -1.2390    -0.0120 os         1 XXL      -0.326100
     13 CAN          0.7740    -2.0520    -0.0350 c          1 XXL       0.546000
     14 CAO          2.6710     0.0680    -0.1020 ca         1 XXL       0.081100
     15 CAP          1.2910     0.3640    -0.2440 ca         1 XXL      -0.074000
     16 HA          -1.3910    -1.3680    -1.3430 h1         1 XXL       0.094200
     17 HAA         -1.0440     0.3470    -1.4680 h1         1 XXL       0.094200
     18 HAAA        -5.2320     1.9500    -0.7570 hc         1 XXL       0.048033
     19 HAAB        -5.8330     0.2780    -0.8960 hc         1 XXL       0.048033
     20 HAAC        -6.3700     1.3090     0.4480 hc         1 XXL       0.048033
     21 HAD          3.9440     3.2390    -0.0100 ha         1 XXL       0.120000
     22 HAE          1.5140     3.7830    -0.0700 ha         1 XXL       0.119000
     23 HAF          4.6810     0.8550     0.0210 ha         1 XXL       0.132000
     24 HAG         -0.1700     1.9860    -0.1760 ha         1 XXL       0.119000
     25 HAH         -4.0470     1.3460     1.3750 h1         1 XXL       0.050200
     26 HAHA        -4.6490    -0.3270     1.2350 h1         1 XXL       0.050200
     27 HAI          2.5350    -3.2040     0.4490 h1         1 XXL       0.088700
     28 HAIA         2.0760    -1.9610     1.6590 h1         1 XXL       0.088700
     29 OAC          0.1190    -3.0360    -0.3650 o          1 XXL      -0.525000
     30 CAH         -4.3400     0.5600     0.6660 c3         1 XXL       0.168600
@<TRIPOS>BOND
     1     1     3 2   
     2     1     4 1   
     3     1    11 1   
     4     2     4 1   
     5     2    13 1   
     6     2    15 1   
     7     4    16 1   
     8     4    17 1   
     9     5    18 1   
    10     5    19 1   
    11     5    20 1   
    12     5    30 1   
    13     6     7 ar  
    14     6     8 ar  
    15     6    21 1   
    16     7     9 ar  
    17     7    22 1   
    18     8    14 ar  
    19     8    23 1   
    20     9    15 ar  
    21     9    24 1   
    22    10    12 1   
    23    10    13 1   
    24    10    27 1   
    25    10    28 1   
    26    11    30 1   
    27    12    14 1   
    28    13    29 2   
    29    14    15 ar  
    30    25    30 1   
    31    26    30 1   
@<TRIPOS>SUBSTRUCTURE
     1 XXL         1 TEMP              0 ****  ****    0 ROOT
