@<TRIPOS>MOLECULE
XXL
   30    31     1     0     0
SMALL
abcg2


@<TRIPOS>ATOM
      1 C           -1.9670    -0.0090     0.2020 c          1 XXL       0.574100
      2 N            0.3170    -0.6040    -0.4350 n          1 XXL      -0.200400
      3 O           -1.6610     0.0100     1.3650 o          1 XXL      -0.476000
      4 CA          -1.0000    -0.2990    -0.9290 c3         1 XXL       0.033000
      5 CAA         -5.5010     0.7190    -0.1150 c3         1 XXL      -0.098100
      6 CAD          3.2640     2.3330     0.0650 ca         1 XXL      -0.106000
      7 CAE          1.9380     2.7170    -0.0610 ca         1 XXL      -0.104000
      8 CAF          3.5960     0.9850     0.0680 ca         1 XXL      -0.102000
      9 CAG          0.9400     1.7620    -0.2010 ca         1 XXL      -0.117000
     10 CAI          1.9580    -2.1030     0.5270 c6         1 XXL       0.077600
     11 OAK         -3.1770     0.2200    -0.2690 os         1 XXL      -0.451100
     12 OAL          2.9210    -1.2820    -0.1000 os         1 XXL      -0.326100
     13 CAN          0.5660    -1.8740    -0.0140 c          1 XXL       0.546000
     14 CAO          2.6020     0.0340    -0.0790 ca         1 XXL       0.081100
     15 CAP          1.2650     0.4120    -0.2260 ca         1 XXL      -0.074000
     16 HA          -1.3750    -1.1360    -1.5170 h1         1 XXL       0.094200
     17 HAA         -0.9520     0.5540    -1.6070 h1         1 XXL       0.094200
     18 HAAA        -5.4170     1.5410    -0.8250 hc         1 XXL       0.048033
     19 HAAB        -5.7790    -0.1850    -0.6560 hc         1 XXL       0.048033
     20 HAAC        -6.3090     0.9560     0.5770 hc         1 XXL       0.048033
     21 HAD          4.0410     3.0770     0.1750 ha         1 XXL       0.120000
     22 HAE          1.6700     3.7650    -0.0490 ha         1 XXL       0.119000
     23 HAF          4.6240     0.6640     0.1750 ha         1 XXL       0.132000
     24 HAG         -0.0860     2.0920    -0.2930 ha         1 XXL       0.119000
     25 HAH         -3.9650     1.4330     1.2190 h1         1 XXL       0.050200
     26 HAHA        -4.3250    -0.2880     1.3860 h1         1 XXL       0.050200
     27 HAI          2.2430    -3.1370     0.3470 h1         1 XXL       0.088700
     28 HAIA         1.9440    -1.9340     1.6120 h1         1 XXL       0.088700
     29 OAC         -0.2670    -2.7570    -0.0470 o          1 XXL      -0.525000
     30 CAH         -4.2260     0.5280     0.6680 c3         1 XXL       0.168600
@<TRIPOS>BOND
     1     1     3 2   
     2     1     4 1   
     3     1    11 1   
     4     2     4 1   
     5     2    13 1   
     6     2    15 1   
     7     4    16 1   
     8     4    17 1   
     9     5    18 1   
    10     5    19 1   
    11     5    20 1   
    12     5    30 1   
    13     6     7 ar  
    14     6     8 ar  
    15     6    21 1   
    16     7     9 ar  
    17     7    22 1   
    18     8    14 ar  
    19     8    23 1   
    20     9    15 ar  
    21     9    24 1   
    22    10    12 1   
    23    10    13 1   
    24    10    27 1   
    25    10    28 1   
    26    11    30 1   
    27    12    14 1   
    28    13    29 2   
    29    14    15 ar  
    30    25    30 1   
    31    26    30 1   
@<TRIPOS>SUBSTRUCTURE
     1 XXL         1 TEMP              0 ****  ****    0 ROOT
