@<TRIPOS>MOLECULE
XXM
   20    20     1     0     0
SMALL
No Charge or Current Charge


@<TRIPOS>ATOM
      1 O5          23.7430    22.7080    21.2030 oh         1 XXM      -0.699000
      2 C5          24.8060    21.9590    21.8210 c3         1 XXM       0.146600
      3 C3          25.4480    20.9250    20.8360 c5         1 XXM       0.137000
      4 O3          24.4930    19.9110    20.5060 oh         1 XXM      -0.677000
      5 C4          26.0820    21.6130    19.5640 c5         1 XXM       0.169600
      6 O4          27.4740    21.2260    19.5410 os         1 XXM      -0.443000
      7 C1          27.8520    21.0370    20.8990 c5         1 XXM       0.401300
      8 O1          29.0850    20.3420    20.9370 oh         1 XXM      -0.718000
      9 C2          26.6760    20.1720    21.4570 c5         1 XXM       0.054300
     10 O2          26.7370    18.8020    20.9820 oh         1 XXM      -0.720000
     11 HO5         23.3030    23.2280    21.9150 ho         1 XXM       0.504000
     12 H51         24.4270    21.4200    22.7000 h1         1 XXM       0.018700
     13 H52         25.5880    22.6450    22.1720 h1         1 XXM       0.018700
     14 HO3         25.0680    19.1000    20.5720 ho         1 XXM       0.513000
     15 H41         26.0220    22.7080    19.6260 h1         1 XXM       0.068700
     16 H42         25.6010    21.2980    18.6290 h1         1 XXM       0.068700
     17 H1          27.9210    22.0050    21.4160 h2         1 XXM       0.059700
     18 HO1         29.6530    20.8160    20.2880 ho         1 XXM       0.526000
     19 H2          26.6580    20.1980    22.5560 h1         1 XXM       0.051700
     20 HO2         27.6990    18.6470    20.7990 ho         1 XXM       0.519000
@<TRIPOS>BOND
     1     1     2 1   
     2     1    11 1   
     3     2     3 1   
     4     2    12 1   
     5     2    13 1   
     6     3     4 1   
     7     3     5 1   
     8     3     9 1   
     9     4    14 1   
    10     5     6 1   
    11     5    15 1   
    12     5    16 1   
    13     6     7 1   
    14     7     8 1   
    15     7     9 1   
    16     7    17 1   
    17     8    18 1   
    18     9    10 1   
    19     9    19 1   
    20    10    20 1   
@<TRIPOS>SUBSTRUCTURE
     1 XXM         1 TEMP              0 ****  ****    0 ROOT
