@<TRIPOS>MOLECULE
XXM
   20    20     1     0     0
SMALL
abcg2


@<TRIPOS>ATOM
      1 O5          23.4820    21.8490    20.9880 oh         1 XXM      -0.699000
      2 C5          24.5940    21.3760    21.7090 c3         1 XXM       0.146600
      3 C3          25.7210    21.0810    20.7330 c5         1 XXM       0.137000
      4 O3          25.3490    20.0880    19.8080 oh         1 XXM      -0.677000
      5 C4          26.1850    22.3120    19.9640 c5         1 XXM       0.169600
      6 O4          27.5920    22.1810    19.7650 os         1 XXM      -0.443000
      7 C1          28.1120    21.0970    20.4630 c5         1 XXM       0.401300
      8 O1          28.4200    20.0830    19.5540 oh         1 XXM      -0.718000
      9 C2          27.0200    20.6910    21.4630 c5         1 XXM       0.054300
     10 O2          27.0880    19.3230    21.7630 oh         1 XXM      -0.720000
     11 HO5         22.7840    22.0580    21.6150 ho         1 XXM       0.504000
     12 H51         24.3580    20.4590    22.2680 h1         1 XXM       0.018700
     13 H52         24.9450    22.1130    22.4440 h1         1 XXM       0.018700
     14 HO3         25.3840    19.2360    20.2590 ho         1 XXM       0.513000
     15 H41         25.9920    23.2260    20.5350 h1         1 XXM       0.068700
     16 H42         25.6830    22.4070    18.9990 h1         1 XXM       0.068700
     17 H1          29.0240    21.4300    20.9790 h2         1 XXM       0.059700
     18 HO1         28.4620    19.2480    20.0360 ho         1 XXM       0.526000
     19 H2          27.1290    21.3090    22.3610 h1         1 XXM       0.051700
     20 HO2         27.0130    19.1930    22.7120 ho         1 XXM       0.519000
@<TRIPOS>BOND
     1     1     2 1   
     2     1    11 1   
     3     2     3 1   
     4     2    12 1   
     5     2    13 1   
     6     3     4 1   
     7     3     5 1   
     8     3     9 1   
     9     4    14 1   
    10     5     6 1   
    11     5    15 1   
    12     5    16 1   
    13     6     7 1   
    14     7     8 1   
    15     7     9 1   
    16     7    17 1   
    17     8    18 1   
    18     9    10 1   
    19     9    19 1   
    20    10    20 1   
@<TRIPOS>SUBSTRUCTURE
     1 XXM         1 TEMP              0 ****  ****    0 ROOT
