@<TRIPOS>MOLECULE
XXN
   18    19     1     0     0
SMALL
abcg2


@<TRIPOS>ATOM
      1 C4         -20.4260    -6.9910   -25.7000 ca         1 XXN      -0.051000
      2 C5         -19.4040    -6.2670   -25.1090 ca         1 XXN      -0.134000
      3 C6         -19.6620    -4.9920   -24.6110 ca         1 XXN       0.189000
      4 C7         -22.9690    -3.2670   -24.6700 c          1 XXN       0.534000
      5 N          -23.1250    -4.4750   -25.2840 ns         1 XXN      -0.138000
      6 C          -21.4830    -3.1370   -24.2780 c5         1 XXN       0.152600
      7 O          -21.3280    -2.9150   -22.9090 oh         1 XXN      -0.619000
      8 C1         -20.9290    -4.4630   -24.6970 ca         1 XXN      -0.143300
      9 C2         -21.9470    -5.2000   -25.2970 ca         1 XXN       0.001000
     10 C3         -21.7070    -6.4620   -25.8030 ca         1 XXN       0.069000
     11 O1         -23.8340    -2.4530   -24.4570 o          1 XXN      -0.506000
     12 CL         -22.9810    -7.3570   -26.5450 cl         1 XXN      -0.182000
     13 CL1        -18.3890    -4.0700   -23.9030 cl         1 XXN      -0.171000
     14 H1         -20.2230    -7.9800   -26.0890 ha         1 XXN       0.136000
     15 H2         -18.4120    -6.6920   -25.0410 ha         1 XXN       0.139000
     16 H3         -24.0140    -4.8230   -25.6170 hn         1 XXN       0.185000
     17 H4         -21.0390    -2.3340   -24.8850 h1         1 XXN       0.076700
     18 H5         -21.5100    -1.9870   -22.7270 ho         1 XXN       0.462000
@<TRIPOS>BOND
     1     1     2 ar  
     2     1    10 ar  
     3     1    14 1   
     4     2     3 ar  
     5     2    15 1   
     6     3     8 ar  
     7     3    13 1   
     8     4     5 1   
     9     4     6 1   
    10     4    11 2   
    11     5     9 1   
    12     5    16 1   
    13     6     7 1   
    14     6     8 1   
    15     6    17 1   
    16     7    18 1   
    17     8     9 ar  
    18     9    10 ar  
    19    10    12 1   
@<TRIPOS>SUBSTRUCTURE
     1 XXN         1 TEMP              0 ****  ****    0 ROOT
