@<TRIPOS>MOLECULE
XXN
   18    19     1     0     0
SMALL
No Charge or Current Charge


@<TRIPOS>ATOM
      1 C4         -20.4290    -7.0430   -25.7070 ca         1 XXN      -0.051000
      2 C5         -19.3770    -6.2840   -25.1380 ca         1 XXN      -0.134000
      3 C6         -19.6150    -4.9850   -24.6410 ca         1 XXN       0.189000
      4 C7         -22.9860    -3.1870   -24.6950 c          1 XXN       0.534000
      5 N          -23.0910    -4.4440   -25.2510 ns         1 XXN      -0.138000
      6 C          -21.4580    -3.1040   -24.2730 c5         1 XXN       0.152600
      7 O          -21.3130    -2.9140   -22.8520 oh         1 XXN      -0.619000
      8 C1         -20.9180    -4.4630   -24.7160 ca         1 XXN      -0.143300
      9 C2         -21.9320    -5.2110   -25.2830 ca         1 XXN       0.001000
     10 C3         -21.7280    -6.5030   -25.7870 ca         1 XXN       0.069000
     11 O1         -23.8950    -2.3740   -24.5600 o          1 XXN      -0.506000
     12 Cl         -23.0480    -7.4210   -26.5010 cl         1 XXN      -0.182000
     13 Cl1        -18.2930    -4.0440   -23.9600 cl         1 XXN      -0.171000
     14 H1         -20.2340    -8.0430   -26.0890 ha         1 XXN       0.136000
     15 H2         -18.3750    -6.7020   -25.0870 ha         1 XXN       0.139000
     16 H3         -23.9690    -4.7960   -25.6110 hn         1 XXN       0.185000
     17 H4         -20.9840    -2.2930   -24.8430 h1         1 XXN       0.076700
     18 H5         -21.7380    -2.0550   -22.6290 ho         1 XXN       0.462000
@<TRIPOS>BOND
     1     1     2 ar  
     2     1    10 ar  
     3     1    14 1   
     4     2     3 ar  
     5     2    15 1   
     6     3     8 ar  
     7     3    13 1   
     8     4     5 1   
     9     4     6 1   
    10     4    11 2   
    11     5     9 1   
    12     5    16 1   
    13     6     7 1   
    14     6     8 1   
    15     6    17 1   
    16     7    18 1   
    17     8     9 ar  
    18     9    10 ar  
    19    10    12 1   
@<TRIPOS>SUBSTRUCTURE
     1 XXN         1 TEMP              0 ****  ****    0 ROOT
