@<TRIPOS>MOLECULE
XXO
   20    21     1     0     0
SMALL
No Charge or Current Charge


@<TRIPOS>ATOM
      1 CAA          1.9850     0.0150     0.0150 cc         1 XXO       0.118000
      2 CAC          3.6690    -1.4030     0.0250 cc         1 XXO       0.100900
      3 CAD          4.2000    -0.1380     0.0470 cd         1 XXO      -0.202000
      4 CAE          3.1240     0.7750     0.0400 cd         1 XXO      -0.182000
      5 CAF          0.6020     0.5280    -0.0000 ca         1 XXO       0.254000
      6 CAH         -0.8630     2.3400    -0.0030 ca         1 XXO       0.292900
      7 CAI         -1.9870     1.5010    -0.0290 ca         1 XXO      -0.124000
      8 CAJ         -1.8120     0.0990    -0.0410 ca         1 XXO      -0.116600
      9 CAK         -0.4810    -0.3780    -0.0260 ca         1 XXO      -0.100000
     10 CAL         -2.9960    -0.8500    -0.0690 c          1 XXO       0.714600
     11 NAG          0.4060     1.8740     0.0110 nb         1 XXO      -0.696000
     12 OAB          2.2920    -1.3280     0.0050 os         1 XXO      -0.226000
     13 OAM         -4.1240    -0.3770    -0.0810 o          1 XXO      -0.710500
     14 OAN         -2.7790    -2.0540    -0.0790 o          1 XXO      -0.710500
     15 HAC          4.1240    -2.3840     0.0210 h4         1 XXO       0.040100
     16 HAD          5.2570     0.1070     0.0650 ha         1 XXO       0.124000
     17 HAE          3.1810     1.8590     0.0530 ha         1 XXO       0.146000
     18 HAH         -0.9790     3.4220     0.0070 h4         1 XXO      -0.007900
     19 HAI         -2.9800     1.9430    -0.0390 ha         1 XXO       0.136000
     20 HAK         -0.2850    -1.4470    -0.0350 ha         1 XXO       0.148000
@<TRIPOS>BOND
     1     1     4 2   
     2     1     5 1   
     3     1    12 1   
     4     2     3 2   
     5     2    12 1   
     6     2    15 1   
     7     3     4 1   
     8     3    16 1   
     9     4    17 1   
    10     5     9 ar  
    11     5    11 ar  
    12     6     7 ar  
    13     6    11 ar  
    14     6    18 1   
    15     7     8 ar  
    16     7    19 1   
    17     8     9 ar  
    18     8    10 1   
    19     9    20 1   
    20    10    13 1   
    21    10    14 1   
@<TRIPOS>SUBSTRUCTURE
     1 XXO         1 TEMP              0 ****  ****    0 ROOT
