@<TRIPOS>MOLECULE
XXO
   20    21     1     0     0
SMALL
bcc


@<TRIPOS>ATOM
      1 CAA          1.9780     0.1090     0.0180 cc         1 XXO       0.227700
      2 CAC          3.5800    -1.3680     0.0270 cc         1 XXO       0.210600
      3 CAD          4.1900    -0.1590     0.0440 cd         1 XXO      -0.285300
      4 CAE          3.1460     0.8090     0.0380 cd         1 XXO      -0.265300
      5 CAF          0.5870     0.5350     0.0020 ca         1 XXO       0.319300
      6 CAH         -0.8530     2.3000    -0.0020 ca         1 XXO       0.358200
      7 CAI         -1.9660     1.4720    -0.0280 ca         1 XXO      -0.207300
      8 CAJ         -1.7740     0.0960    -0.0410 ca         1 XXO      -0.116600
      9 CAK         -0.4680    -0.3760    -0.0250 ca         1 XXO      -0.183300
     10 CAL         -2.9580    -0.8710    -0.0700 c          1 XXO       0.925200
     11 NAG          0.3940     1.8550     0.0140 nb         1 XXO      -0.696000
     12 OAB          2.2420    -1.2150     0.0120 os         1 XXO      -0.314800
     13 OAM         -4.0880    -0.3520    -0.0710 o          1 XXO      -0.815800
     14 OAN         -2.6790    -2.0830    -0.0920 o          1 XXO      -0.815800
     15 HAC          3.9510    -2.3800     0.0240 h4         1 XXO       0.040100
     16 HAD          5.2520     0.0230     0.0590 ha         1 XXO       0.142000
     17 HAE          3.2470     1.8810     0.0480 ha         1 XXO       0.164000
     18 HAH         -0.9780     3.3770     0.0080 h4         1 XXO      -0.007900
     19 HAI         -2.9600     1.8940    -0.0400 ha         1 XXO       0.154000
     20 HAK         -0.2880    -1.4420    -0.0350 ha         1 XXO       0.166000
@<TRIPOS>BOND
     1     1     4 2   
     2     1     5 1   
     3     1    12 1   
     4     2     3 2   
     5     2    12 1   
     6     2    15 1   
     7     3     4 1   
     8     3    16 1   
     9     4    17 1   
    10     5     9 ar  
    11     5    11 ar  
    12     6     7 ar  
    13     6    11 ar  
    14     6    18 1   
    15     7     8 ar  
    16     7    19 1   
    17     8     9 ar  
    18     8    10 1   
    19     9    20 1   
    20    10    13 1   
    21    10    14 1   
@<TRIPOS>SUBSTRUCTURE
     1 XXO         1 TEMP              0 ****  ****    0 ROOT
