@<TRIPOS>MOLECULE
XXP
   17    16     1     0     0
SMALL
No Charge or Current Charge


@<TRIPOS>ATOM
      1 O8           2.9630     3.8870    -0.6910 o          1 XXP      -0.439500
      2 N7           2.8790     2.6510    -0.7050 no         1 XXP       0.689100
      3 O9           3.4320     1.9430    -1.5570 o          1 XXP      -0.439500
      4 C5           2.0840     1.9750     0.3630 ce         1 XXP      -0.215100
      5 C6           1.4970     2.7300     1.3280 c2         1 XXP       0.088100
      6 O10          0.8190     2.1950     2.3680 oh         1 XXP      -0.463100
      7 C4           2.0140     0.4960     0.3520 ce         1 XXP      -0.189000
      8 C3           0.8980    -0.2870     0.2150 cf         1 XXP      -0.191200
      9 C2          -0.5190     0.1620    -0.0330 c          1 XXP       0.415300
     10 O11         -0.8060     1.3460    -0.2390 o          1 XXP      -0.549100
     11 C1          -1.6530    -1.0000    -0.0510 c          1 XXP       0.652000
     12 O12         -1.4120    -2.0670     0.5090 o          1 XXP      -0.694500
     13 O13         -2.7190    -0.7740    -0.6220 o          1 XXP      -0.694500
     14 H6           1.5610     3.8220     1.3360 h4         1 XXP       0.188000
     15 HO10         0.4780     2.9300     2.9230 ho         1 XXP       0.477000
     16 H4           2.9730    -0.0160     0.4590 ha         1 XXP       0.172000
     17 H3           1.0360    -1.3670     0.2600 ha         1 XXP       0.194000
@<TRIPOS>BOND
     1     1     2 1   
     2     2     3 1   
     3     2     4 1   
     4     4     5 2   
     5     4     7 1   
     6     5     6 1   
     7     5    14 1   
     8     6    15 1   
     9     7     8 2   
    10     7    16 1   
    11     8     9 1   
    12     8    17 1   
    13     9    10 2   
    14     9    11 1   
    15    11    12 1   
    16    11    13 1   
@<TRIPOS>SUBSTRUCTURE
     1 XXP         1 TEMP              0 ****  ****    0 ROOT
