@<TRIPOS>MOLECULE
XXP
   17    16     1     0     0
SMALL
abcg2


@<TRIPOS>ATOM
      1 O8           3.1080     3.8700    -0.1310 o          1 XXP      -0.439500
      2 N7           3.0040     2.6850    -0.3780 no         1 XXP       0.689100
      3 O9           3.6890     2.1190    -1.2060 o          1 XXP      -0.439500
      4 C5           2.0380     1.8890     0.3110 ce         1 XXP      -0.215100
      5 C6           1.2660     2.5100     1.2290 c2         1 XXP       0.088100
      6 O10          0.3760     1.8430     1.9250 oh         1 XXP      -0.463100
      7 C4           2.0480     0.4550     0.0310 ce         1 XXP      -0.189000
      8 C3           0.9680    -0.3090    -0.1430 cf         1 XXP      -0.191200
      9 C2          -0.4240     0.1910    -0.2710 c          1 XXP       0.415300
     10 O11         -0.6910     1.1650    -0.9360 o          1 XXP      -0.549100
     11 C1          -1.5130    -0.6090     0.4860 c          1 XXP       0.652000
     12 O12         -1.0720    -1.4740     1.2630 o          1 XXP      -0.694500
     13 O13         -2.6850    -0.2950     0.2460 o          1 XXP      -0.694500
     14 H6           1.3660     3.5730     1.4200 h4         1 XXP       0.188000
     15 HO10        -0.0800     2.4240     2.5460 ho         1 XXP       0.477000
     16 H4           3.0180    -0.0310     0.0420 ha         1 XXP       0.172000
     17 H3           1.1090    -1.3800    -0.2180 ha         1 XXP       0.194000
@<TRIPOS>BOND
     1     1     2 1   
     2     2     3 1   
     3     2     4 1   
     4     4     5 2   
     5     4     7 1   
     6     5     6 1   
     7     5    14 1   
     8     6    15 1   
     9     7     8 2   
    10     7    16 1   
    11     8     9 1   
    12     8    17 1   
    13     9    10 2   
    14     9    11 1   
    15    11    12 1   
    16    11    13 1   
@<TRIPOS>SUBSTRUCTURE
     1 XXP         1 TEMP              0 ****  ****    0 ROOT
