@<TRIPOS>MOLECULE
XXQ
   38    41     1     0     0
SMALL
abcg2


@<TRIPOS>ATOM
      1 F3           0.8480    -8.1980     7.3560 f          1 XXQ      -0.118667
      2 C19          0.5350    -7.7030     8.5690 c3         1 XXQ       0.344300
      3 F1          -0.7210    -7.2000     8.4710 f          1 XXQ      -0.118667
      4 F2           0.4480    -8.7620     9.4120 f          1 XXQ      -0.118667
      5 C15          1.5140    -6.6760     9.0550 ca         1 XXQ      -0.204300
      6 C16          2.6420    -6.3760     8.3110 ca         1 XXQ      -0.007000
      7 C12          3.5160    -5.4030     8.7950 ca         1 XXQ       0.087400
      8 N3           4.6760    -4.9870     8.1680 nc         1 XXQ      -0.554100
      9 C14          1.2480    -6.0330    10.2760 ca         1 XXQ      -0.076000
     10 C13          2.1070    -5.0680    10.7660 ca         1 XXQ      -0.066000
     11 C11          3.2380    -4.7520    10.0150 ca         1 XXQ      -0.188000
     12 S1           4.4770    -3.5820    10.3410 ss         1 XXQ       0.170800
     13 C10          5.2650    -4.0580     8.8430 cd         1 XXQ       0.378200
     14 C9           6.5230    -3.3800     8.3800 c3         1 XXQ       0.100700
     15 N1           7.1270    -2.5440     9.4060 n          1 XXQ      -0.174800
     16 C1           7.9820    -3.1260    10.3210 c          1 XXQ       0.454500
     17 O1           8.2290    -4.3260    10.2940 o          1 XXQ      -0.533000
     18 N2           6.7350    -1.2400     9.3700 nc         1 XXQ      -0.469300
     19 C4           7.1920    -0.4060    10.2460 cd         1 XXQ       0.373300
     20 C17          6.6920     0.9980    10.2120 c3         1 XXQ      -0.257700
     21 C18          5.6770     1.3170    11.3490 c          1 XXQ       0.731000
     22 O3           5.2150     0.3490    11.9990 o          1 XXQ      -0.720500
     23 O2           5.3960     2.5290    11.4940 o          1 XXQ      -0.720500
     24 C3           8.1410    -0.8310    11.2520 ca         1 XXQ       0.301700
     25 N4           8.6370     0.0660    12.1290 nb         1 XXQ      -0.577000
     26 C7           9.4950    -0.3890    13.0190 ca         1 XXQ       0.306900
     27 C6           9.8800    -1.7420    13.0630 ca         1 XXQ       0.265900
     28 N5           9.4070    -2.6270    12.2080 nb         1 XXQ      -0.587000
     29 C2           8.5360    -2.1720    11.2950 ca         1 XXQ       0.234500
     30 H16          2.8510    -6.8700     7.3730 ha         1 XXQ       0.141000
     31 H14          0.3600    -6.2920    10.8370 ha         1 XXQ       0.122000
     32 H13          1.9000    -4.5700    11.7040 ha         1 XXQ       0.134000
     33 H91          7.2380    -4.1370     8.0670 h1         1 XXQ       0.091200
     34 H92          6.2940    -2.7360     7.5330 h1         1 XXQ       0.091200
     35 H171         7.5200     1.7020    10.2890 hc         1 XXQ       0.056700
     36 H172         6.1890     1.1700     9.2600 hc         1 XXQ       0.056700
     37 H7           9.9060     0.3190    13.7310 h4         1 XXQ       0.028100
     38 H6          10.5860    -2.0860    13.8110 h4         1 XXQ       0.023100
@<TRIPOS>BOND
     1     1     2 1   
     2     2     3 1   
     3     2     4 1   
     4     2     5 1   
     5     5     6 ar  
     6     5     9 ar  
     7     6     7 ar  
     8     6    30 1   
     9     7     8 1   
    10     7    11 ar  
    11     8    13 2   
    12     9    10 ar  
    13     9    31 1   
    14    10    11 ar  
    15    10    32 1   
    16    11    12 1   
    17    12    13 1   
    18    13    14 1   
    19    14    15 1   
    20    14    33 1   
    21    14    34 1   
    22    15    16 1   
    23    15    18 1   
    24    16    17 2   
    25    16    29 1   
    26    18    19 2   
    27    19    20 1   
    28    19    24 1   
    29    20    21 1   
    30    20    35 1   
    31    20    36 1   
    32    21    22 1   
    33    21    23 1   
    34    24    25 ar  
    35    24    29 ar  
    36    25    26 ar  
    37    26    27 ar  
    38    26    37 1   
    39    27    28 ar  
    40    27    38 1   
    41    28    29 ar  
@<TRIPOS>SUBSTRUCTURE
     1 XXQ         1 TEMP              0 ****  ****    0 ROOT
