@<TRIPOS>MOLECULE
XXQ
   38    41     1     0     0
SMALL
No Charge or Current Charge


@<TRIPOS>ATOM
      1 F3           1.0880    -8.6480     7.6330 f          1 XXQ      -0.118667
      2 C19          0.9030    -8.2370     8.9090 c3         1 XXQ       0.344300
      3 F1          -0.4350    -8.1750     9.1030 f          1 XXQ      -0.118667
      4 F2           1.3740    -9.2170     9.7120 f          1 XXQ      -0.118667
      5 C15          1.5980    -6.9020     9.1940 ca         1 XXQ      -0.204300
      6 C16          2.8140    -6.5790     8.5430 ca         1 XXQ      -0.007000
      7 C12          3.4590    -5.3590     8.8120 ca         1 XXQ       0.087400
      8 N3           4.6530    -4.9710     8.2100 nc         1 XXQ      -0.554100
      9 C14          1.0510    -5.9860    10.1270 ca         1 XXQ      -0.076000
     10 C13          1.7000    -4.7660    10.3920 ca         1 XXQ      -0.066000
     11 C11          2.8970    -4.4800     9.7210 ca         1 XXQ      -0.188000
     12 S1           3.8540    -3.0210     9.9100 ss         1 XXQ       0.170800
     13 C10          4.9560    -3.7630     8.7220 cd         1 XXQ       0.378200
     14 C9           6.1940    -3.0280     8.2690 c3         1 XXQ       0.100700
     15 N1           6.9330    -2.3270     9.3510 n          1 XXQ      -0.174800
     16 C1           7.7570    -3.0740    10.2290 c          1 XXQ       0.454500
     17 O1           7.8750    -4.2930    10.1260 o          1 XXQ      -0.533000
     18 N2           6.7170    -0.9610     9.3990 nc         1 XXQ      -0.469300
     19 C4           7.3150    -0.2190    10.3370 cd         1 XXQ       0.373300
     20 C17          6.9780     1.2510    10.2950 c3         1 XXQ      -0.257700
     21 C18          5.7990     1.5140    11.2160 c          1 XXQ       0.731000
     22 O3           4.6750     1.3870    10.7580 o          1 XXQ      -0.720500
     23 O2           6.0280     1.7230    12.3960 o          1 XXQ      -0.720500
     24 C3           8.2420    -0.8510    11.3230 ca         1 XXQ       0.301700
     25 N4           8.8730    -0.0550    12.2430 nb         1 XXQ      -0.577000
     26 C7           9.7060    -0.6780    13.1170 ca         1 XXQ       0.306900
     27 C6           9.9210    -2.0760    13.0840 ca         1 XXQ       0.265900
     28 N5           9.3110    -2.8790    12.1740 nb         1 XXQ      -0.587000
     29 C2           8.4680    -2.2560    11.2870 ca         1 XXQ       0.234500
     30 H16          3.2630    -7.2690     7.8330 ha         1 XXQ       0.141000
     31 H14          0.1260    -6.2170    10.6510 ha         1 XXQ       0.122000
     32 H13          1.2780    -4.0620    11.1070 ha         1 XXQ       0.134000
     33 H91          6.8710    -3.7420     7.7820 h1         1 XXQ       0.091200
     34 H92          5.8950    -2.3020     7.5030 h1         1 XXQ       0.091200
     35 H171         7.8580     1.8010    10.6440 hc         1 XXQ       0.056700
     36 H172         6.7070     1.5040     9.2630 hc         1 XXQ       0.056700
     37 H7          10.2070    -0.0510    13.8530 h4         1 XXQ       0.028100
     38 H6          10.5930    -2.5570    13.7940 h4         1 XXQ       0.023100
@<TRIPOS>BOND
     1     1     2 1   
     2     2     3 1   
     3     2     4 1   
     4     2     5 1   
     5     5     6 ar  
     6     5     9 ar  
     7     6     7 ar  
     8     6    30 1   
     9     7     8 1   
    10     7    11 ar  
    11     8    13 2   
    12     9    10 ar  
    13     9    31 1   
    14    10    11 ar  
    15    10    32 1   
    16    11    12 1   
    17    12    13 1   
    18    13    14 1   
    19    14    15 1   
    20    14    33 1   
    21    14    34 1   
    22    15    16 1   
    23    15    18 1   
    24    16    17 2   
    25    16    29 1   
    26    18    19 2   
    27    19    20 1   
    28    19    24 1   
    29    20    21 1   
    30    20    35 1   
    31    20    36 1   
    32    21    22 1   
    33    21    23 1   
    34    24    25 ar  
    35    24    29 ar  
    36    25    26 ar  
    37    26    27 ar  
    38    26    37 1   
    39    27    28 ar  
    40    27    38 1   
    41    28    29 ar  
@<TRIPOS>SUBSTRUCTURE
     1 XXQ         1 TEMP              0 ****  ****    0 ROOT
