@<TRIPOS>MOLECULE
XXR
   23    23     1     0     0
SMALL
bcc


@<TRIPOS>ATOM
      1 O4          13.7760    40.1010    -1.2220 oh         1 XXR      -0.592800
      2 C4          12.6700    39.2370    -1.1140 c6         1 XXR       0.125100
      3 C5          12.7000    38.2950    -2.3180 c6         1 XXR       0.153100
      4 C6          13.9150    37.3890    -2.3140 c3         1 XXR      -0.082100
      5 C3          11.3560    40.0060    -1.1010 c6         1 XXR       0.068100
      6 O3          11.3340    40.8010     0.0690 oh         1 XXR      -0.608800
      7 C2          10.1730    39.0390    -1.1300 c6         1 XXR       0.056100
      8 O2          10.1030    38.2650     0.0420 oh         1 XXR      -0.578800
      9 C1          10.3190    38.0710    -2.3060 c6         1 XXR       0.357900
     10 O5          11.5570    37.4480    -2.3080 os         1 XXR      -0.382600
     11 O1          10.1590    38.7350    -3.5300 oh         1 XXR      -0.624800
     12 HO4         13.7520    40.7060    -0.4730 ho         1 XXR       0.418000
     13 H4          12.7330    38.6280    -0.2000 h1         1 XXR       0.061700
     14 H5          12.7130    38.9050    -3.2310 h1         1 XXR       0.061700
     15 H61         14.8300    37.9750    -2.3650 hc         1 XXR       0.049033
     16 H62         13.9480    36.7820    -1.4080 hc         1 XXR       0.049033
     17 H63         13.8990    36.7220    -3.1760 hc         1 XXR       0.049033
     18 H3          11.3150    40.6320    -2.0010 h1         1 XXR       0.060700
     19 HO3         10.6840    41.5030    -0.0470 ho         1 XXR       0.411000
     20 H2           9.2450    39.6170    -1.2670 h1         1 XXR       0.026700
     21 HO2         10.1920    38.8630     0.7920 ho         1 XXR       0.419000
     22 H1           9.5830    37.2620    -2.1990 h2         1 XXR       0.083700
     23 HO1          9.2860    39.1420    -3.5580 ho         1 XXR       0.419000
@<TRIPOS>BOND
     1     1     2 1   
     2     1    12 1   
     3     2     3 1   
     4     2     5 1   
     5     2    13 1   
     6     3     4 1   
     7     3    10 1   
     8     3    14 1   
     9     4    15 1   
    10     4    16 1   
    11     4    17 1   
    12     5     6 1   
    13     5     7 1   
    14     5    18 1   
    15     6    19 1   
    16     7     8 1   
    17     7     9 1   
    18     7    20 1   
    19     8    21 1   
    20     9    10 1   
    21     9    11 1   
    22     9    22 1   
    23    11    23 1   
@<TRIPOS>SUBSTRUCTURE
     1 XXR         1 TEMP              0 ****  ****    0 ROOT
