@<TRIPOS>MOLECULE
XXR
   23    23     1     0     0
SMALL
No Charge or Current Charge


@<TRIPOS>ATOM
      1 O4          13.7970    40.1350    -1.0790 oh         1 XXR      -0.715000
      2 C4          12.6960    39.2090    -1.0890 c6         1 XXR       0.148300
      3 C5          12.7180    38.2610    -2.3300 c6         1 XXR       0.176300
      4 C6          13.9610    37.3360    -2.3590 c3         1 XXR      -0.082100
      5 C3          11.3570    40.0080    -1.0540 c6         1 XXR       0.091300
      6 O3          11.2960    40.8170     0.1440 oh         1 XXR      -0.731000
      7 C2          10.1360    39.0410    -1.1120 c6         1 XXR       0.079300
      8 O2          10.0690    38.3440     0.1490 oh         1 XXR      -0.701000
      9 C1          10.2810    38.0670    -2.3440 c6         1 XXR       0.404300
     10 O5          11.5570    37.3910    -2.3130 os         1 XXR      -0.429000
     11 O1          10.1960    38.7670    -3.5910 oh         1 XXR      -0.747000
     12 HO4         13.5150    40.8370    -0.4440 ho         1 XXR       0.517000
     13 H4          12.7430    38.5770    -0.1890 h1         1 XXR       0.061700
     14 H5          12.7130    38.8590    -3.2540 h1         1 XXR       0.061700
     15 H61         14.8860    37.9200    -2.4300 hc         1 XXR       0.049033
     16 H62         14.0210    36.7210    -1.4540 hc         1 XXR       0.049033
     17 H63         13.9300    36.6640    -3.2240 hc         1 XXR       0.049033
     18 H3          11.3240    40.6540    -1.9460 h1         1 XXR       0.060700
     19 HO3         10.6440    41.5420    -0.0210 ho         1 XXR       0.510000
     20 H2           9.2220    39.6380    -1.2460 h1         1 XXR       0.026700
     21 HO2         10.4480    38.9910     0.7950 ho         1 XXR       0.518000
     22 H1           9.4800    37.3110    -2.2890 h2         1 XXR       0.083700
     23 HO1          9.2530    39.0330    -3.6840 ho         1 XXR       0.518000
@<TRIPOS>BOND
     1     1     2 1   
     2     1    12 1   
     3     2     3 1   
     4     2     5 1   
     5     2    13 1   
     6     3     4 1   
     7     3    10 1   
     8     3    14 1   
     9     4    15 1   
    10     4    16 1   
    11     4    17 1   
    12     5     6 1   
    13     5     7 1   
    14     5    18 1   
    15     6    19 1   
    16     7     8 1   
    17     7     9 1   
    18     7    20 1   
    19     8    21 1   
    20     9    10 1   
    21     9    11 1   
    22     9    22 1   
    23    11    23 1   
@<TRIPOS>SUBSTRUCTURE
     1 XXR         1 TEMP              0 ****  ****    0 ROOT
