@<TRIPOS>MOLECULE
XXS
   53    57     1     0     0
SMALL
abcg2


@<TRIPOS>ATOM
      1 C10         17.5870    20.5540    65.8430 c6         1 XXS       0.200500
      2 C13         15.6660    19.0060    64.4040 c6         1 XXS       0.141600
      3 C15         17.2480    20.6050    67.3330 c3         1 XXS      -0.108100
      4 C17         21.3550    19.0660    66.0820 cp         1 XXS       0.233500
      5 C20         24.5840    20.5340    67.4400 ca         1 XXS      -0.084000
      6 C21         24.5030    21.8790    67.1380 ca         1 XXS      -0.118000
      7 C22         23.3550    22.3010    66.4590 ca         1 XXS      -0.045200
      8 C24         21.3700    22.2540    65.4220 cc         1 XXS       0.372800
      9 C28         22.3070    15.3690    68.1930 c3         1 XXS      -0.227100
     10 C03         21.1260    15.4680    65.6420 cx         1 XXS      -0.410300
     11 C04         20.7830    14.6250    64.4430 cx         1 XXS      -0.070400
     12 C05         22.2090    15.0040    64.7130 cx         1 XXS      -0.070400
     13 C06         20.7420    16.9110    65.6930 ca         1 XXS       0.189300
     14 C07         19.4390    17.2960    65.4760 ca         1 XXS      -0.252000
     15 C08         19.1400    18.6720    65.5940 ca         1 XXS       0.396900
     16 C11         16.4800    21.1170    64.9610 c6         1 XXS       0.142600
     17 C14         16.7310    18.3080    65.2330 c6         1 XXS       0.185800
     18 C18         22.4150    20.0450    66.4210 cp         1 XXS      -0.070500
     19 C19         23.5640    19.6340    67.0820 ca         1 XXS      -0.106000
     20 C23         22.3050    21.4190    66.1010 ca         1 XXS      -0.191900
     21 N01         21.4010    13.1540    67.1590 n2         1 XXS      -0.765900
     22 N09         17.8920    19.1780    65.4090 nh         1 XXS      -0.776300
     23 N16         20.1230    19.5380    65.9040 nb         1 XXS      -0.258000
     24 N25         21.7950    23.5040    65.3730 nd         1 XXS      -0.521100
     25 N26         22.9910    23.5300    66.0020 na         1 XXS      -0.077400
     26 N27         21.7190    17.7820    65.9940 nb         1 XXS      -0.230000
     27 O12         15.3280    20.2790    64.9430 os         1 XXS      -0.447000
     28 O29         19.7100    15.0230    67.7990 o          1 XXS      -0.520000
     29 S02         21.0060    14.6300    67.2420 s6         1 XXS       0.877500
     30 H1          18.4780    21.1480    65.6650 h1         1 XXS       0.089700
     31 H2          14.7560    18.4080    64.3970 h1         1 XXS       0.055700
     32 H3          16.0210    19.1290    63.3730 h1         1 XXS       0.055700
     33 H4          18.0630    20.1800    67.9210 hc         1 XXS       0.047367
     34 H5          17.1020    21.6410    67.6450 hc         1 XXS       0.047367
     35 H6          16.3350    20.0510    67.5550 hc         1 XXS       0.047367
     36 H7          25.4530    20.1580    67.9660 ha         1 XXS       0.116000
     37 H8          25.2870    22.5740    67.4070 ha         1 XXS       0.121000
     38 H9          20.4270    21.9840    64.9810 h4         1 XXS       0.057800
     39 H10         22.2560    14.9200    69.1840 h1         1 XXS       0.109367
     40 H11         23.2610    15.1590    67.7170 h1         1 XXS       0.109367
     41 H12         22.1220    16.4390    68.2380 h1         1 XXS       0.109367
     42 H13         20.2510    15.1300    63.6500 hc         1 XXS       0.086700
     43 H14         20.4920    13.5950    64.6020 hc         1 XXS       0.086700
     44 H15         22.8740    14.2290    65.0670 hc         1 XXS       0.086700
     45 H16         22.6670    15.7720    64.1050 hc         1 XXS       0.086700
     46 H17         18.6940    16.5520    65.2540 ha         1 XXS       0.138000
     47 H18         16.8550    21.2420    63.9370 h1         1 XXS       0.057700
     48 H19         16.1610    22.0860    65.3430 h1         1 XXS       0.057700
     49 H20         16.3200    18.0200    66.2070 h1         1 XXS       0.057200
     50 H21         17.0210    17.4010    64.7090 h1         1 XXS       0.057200
     51 H22         23.6690    18.5890    67.3350 ha         1 XXS       0.129000
     52 H23         20.7000    12.6150    66.6550 hn         1 XXS       0.421400
     53 H24         23.5000    24.3950    66.0830 hn         1 XXS       0.376000
@<TRIPOS>BOND
     1     1     3 1   
     2     1    16 1   
     3     1    22 1   
     4     1    30 1   
     5     2    17 1   
     6     2    27 1   
     7     2    31 1   
     8     2    32 1   
     9     3    33 1   
    10     3    34 1   
    11     3    35 1   
    12     4    18 1   
    13     4    23 ar  
    14     4    26 ar  
    15     5     6 ar  
    16     5    19 ar  
    17     5    36 1   
    18     6     7 ar  
    19     6    37 1   
    20     7    20 ar  
    21     7    25 1   
    22     8    20 1   
    23     8    24 2   
    24     8    38 1   
    25     9    29 1   
    26     9    39 1   
    27     9    40 1   
    28     9    41 1   
    29    10    11 1   
    30    10    12 1   
    31    10    13 1   
    32    10    29 1   
    33    11    12 1   
    34    11    42 1   
    35    11    43 1   
    36    12    44 1   
    37    12    45 1   
    38    13    14 ar  
    39    13    26 ar  
    40    14    15 ar  
    41    14    46 1   
    42    15    22 1   
    43    15    23 ar  
    44    16    27 1   
    45    16    47 1   
    46    16    48 1   
    47    17    22 1   
    48    17    49 1   
    49    17    50 1   
    50    18    19 ar  
    51    18    20 ar  
    52    19    51 1   
    53    21    29 2   
    54    21    52 1   
    55    24    25 1   
    56    25    53 1   
    57    28    29 2   
@<TRIPOS>SUBSTRUCTURE
     1 XXS         1 TEMP              0 ****  ****    0 ROOT
