@<TRIPOS>MOLECULE
XXS
   53    57     1     0     0
SMALL
No Charge or Current Charge


@<TRIPOS>ATOM
      1 C10         17.4700    20.4580    66.0410 c6         1 XXS       0.200500
      2 C13         15.6750    19.2030    64.1030 c6         1 XXS       0.141600
      3 C15         17.0950    20.0780    67.4990 c3         1 XXS      -0.108100
      4 C17         21.4570    19.0850    65.9830 cp         1 XXS       0.233500
      5 C20         24.8730    20.5520    67.0610 ca         1 XXS      -0.084000
      6 C21         24.6950    21.9290    66.8340 ca         1 XXS      -0.118000
      7 C22         23.4610    22.3440    66.3270 ca         1 XXS      -0.045200
      8 C24         21.3850    22.3280    65.5380 cc         1 XXS       0.372800
      9 C28         21.9780    15.5210    68.3820 c3         1 XXS      -0.227100
     10 C03         21.1680    15.4330    65.7150 cx         1 XXS      -0.410300
     11 C04         20.9550    14.6170    64.4520 cx         1 XXS      -0.070400
     12 C05         22.3580    14.9410    64.9090 cx         1 XXS      -0.070400
     13 C06         20.7950    16.8850    65.7390 ca         1 XXS       0.189300
     14 C07         19.4820    17.3070    65.4960 ca         1 XXS      -0.252000
     15 C08         19.2230    18.6870    65.5230 ca         1 XXS       0.396900
     16 C11         16.2950    21.1820    65.3080 c6         1 XXS       0.142600
     17 C14         16.8180    18.3730    64.7580 c6         1 XXS       0.185800
     18 C18         22.5640    20.0720    66.2680 cp         1 XXS      -0.070500
     19 C19         23.8270    19.6420    66.7820 ca         1 XXS      -0.106000
     20 C23         22.4420    21.4760    66.0530 ca         1 XXS      -0.191900
     21 N01         21.1690    13.1310    67.3160 n2         1 XXS      -0.765900
     22 N09         17.9300    19.2270    65.3030 nh         1 XXS      -0.776300
     23 N16         20.2150    19.5630    65.7690 nb         1 XXS      -0.258000
     24 N25         21.7330    23.6250    65.5070 nd         1 XXS      -0.521100
     25 N26         23.0360    23.6150    66.0080 na         1 XXS      -0.077400
     26 N27         21.7770    17.7740    65.9710 nb         1 XXS      -0.230000
     27 O12         15.2300    20.2590    64.9830 os         1 XXS      -0.447000
     28 O29         19.4500    15.0090    67.7590 o          1 XXS      -0.520000
     29 S02         20.8070    14.6320    67.3570 s6         1 XXS       0.877500
     30 H1          18.2870    21.1930    66.1010 h1         1 XXS       0.089700
     31 H2          14.8260    18.5470    63.8680 h1         1 XXS       0.055700
     32 H3          16.0310    19.6450    63.1610 h1         1 XXS       0.055700
     33 H4          17.9440    19.6210    68.0200 hc         1 XXS       0.047367
     34 H5          16.7970    20.9650    68.0710 hc         1 XXS       0.047367
     35 H6          16.2600    19.3680    67.5290 hc         1 XXS       0.047367
     36 H7          25.8190    20.1870    67.4540 ha         1 XXS       0.116000
     37 H8          25.4910    22.6410    67.0410 ha         1 XXS       0.121000
     38 H9          20.3960    22.0890    65.1730 h4         1 XXS       0.057800
     39 H10         21.9360    15.0870    69.3860 h1         1 XXS       0.109367
     40 H11         22.9710    15.3960    67.9410 h1         1 XXS       0.109367
     41 H12         21.6830    16.5740    68.4030 h1         1 XXS       0.109367
     42 H13         20.5850    15.1290    63.5670 hc         1 XXS       0.086700
     43 H14         20.6190    13.5870    64.5470 hc         1 XXS       0.086700
     44 H15         22.9580    14.1260    65.3110 hc         1 XXS       0.086700
     45 H16         22.9210    15.6650    64.3240 hc         1 XXS       0.086700
     46 H17         18.7020    16.5780    65.3130 ha         1 XXS       0.138000
     47 H18         16.6660    21.6400    64.3800 h1         1 XXS       0.057700
     48 H19         15.8950    21.9860    65.9410 h1         1 XXS       0.057700
     49 H20         16.3900    17.7570    65.5630 h1         1 XXS       0.057200
     50 H21         17.2050    17.6850    63.9930 h1         1 XXS       0.057200
     51 H22         24.0060    18.5870    66.9790 ha         1 XXS       0.129000
     52 H23         20.3130    12.6270    67.5740 hn         1 XXS       0.421400
     53 H24         23.5780    24.4730    66.1070 hn         1 XXS       0.376000
@<TRIPOS>BOND
     1     1     3 1   
     2     1    16 1   
     3     1    22 1   
     4     1    30 1   
     5     2    17 1   
     6     2    27 1   
     7     2    31 1   
     8     2    32 1   
     9     3    33 1   
    10     3    34 1   
    11     3    35 1   
    12     4    18 1   
    13     4    23 ar  
    14     4    26 ar  
    15     5     6 ar  
    16     5    19 ar  
    17     5    36 1   
    18     6     7 ar  
    19     6    37 1   
    20     7    20 ar  
    21     7    25 1   
    22     8    20 1   
    23     8    24 2   
    24     8    38 1   
    25     9    29 1   
    26     9    39 1   
    27     9    40 1   
    28     9    41 1   
    29    10    11 1   
    30    10    12 1   
    31    10    13 1   
    32    10    29 1   
    33    11    12 1   
    34    11    42 1   
    35    11    43 1   
    36    12    44 1   
    37    12    45 1   
    38    13    14 ar  
    39    13    26 ar  
    40    14    15 ar  
    41    14    46 1   
    42    15    22 1   
    43    15    23 ar  
    44    16    27 1   
    45    16    47 1   
    46    16    48 1   
    47    17    22 1   
    48    17    49 1   
    49    17    50 1   
    50    18    19 ar  
    51    18    20 ar  
    52    19    51 1   
    53    21    29 2   
    54    21    52 1   
    55    24    25 1   
    56    25    53 1   
    57    28    29 2   
@<TRIPOS>SUBSTRUCTURE
     1 XXS         1 TEMP              0 ****  ****    0 ROOT
