@<TRIPOS>MOLECULE
XXT
   52    54     1     0     0
SMALL
No Charge or Current Charge


@<TRIPOS>ATOM
      1 C2           2.2340     2.0550     0.4620 c5         1 XXT      -0.140400
      2 C1           2.6010     0.5460     0.4930 c5         1 XXT       0.175300
      3 O7          -2.9590     2.7140    -0.1760 o          1 XXT      -0.468000
      4 C6          -1.3380     0.4480     0.2550 c3         1 XXT       0.199300
      5 C5           1.2620    -0.2480     0.2530 c5         1 XXT      -0.058700
      6 C3           0.7380     2.0660     0.0870 c5         1 XXT       0.172300
      7 C4           0.1470     0.7630     0.7520 c5         1 XXT      -0.045000
      8 C19         -2.3540     2.7760    -2.5170 c3         1 XXT      -0.154100
      9 O6          -1.5610     1.0890    -1.0250 os         1 XXT      -0.461100
     10 C15          0.1070     0.9190     2.3110 c3         1 XXT      -0.090100
     11 O2          -0.1340     3.7890     0.7760 oh         1 XXT      -0.654000
     12 C7          -1.7920    -1.0280     0.0310 c5         1 XXT      -0.055500
     13 C11         -3.3060    -1.2860     0.0830 ce         1 XXT      -0.235400
     14 C14         -4.3430    -0.5610    -0.4050 c2         1 XXT      -0.205000
     15 C12         -3.4760    -2.6200     0.7290 c          1 XXT       0.660300
     16 O3          -4.5260    -3.2350     0.8310 o          1 XXT      -0.484000
     17 O1          -2.2660    -3.1240     1.0740 os         1 XXT      -0.430100
     18 C8          -1.2960    -2.0650     1.0750 c5         1 XXT       0.177300
     19 C9           0.0820    -2.6570     0.7480 c3         1 XXT      -0.082400
     20 C10          1.3080    -1.6940     0.9300 c3         1 XXT      -0.047700
     21 C13          2.5800    -2.4910     0.5250 c3         1 XXT      -0.089100
     22 O4           3.4730     0.2640    -0.6350 os         1 XXT      -0.450100
     23 C16          4.7930     0.6140    -0.4640 c          1 XXT       0.593100
     24 O5           5.2730     1.1040     0.5500 o          1 XXT      -0.482000
     25 C17          5.6140     0.2780    -1.7010 c3         1 XXT      -0.159100
     26 H1           2.4030     2.5180     1.4400 hc         1 XXT       0.065700
     27 H2           2.8270     2.6290    -0.2590 hc         1 XXT       0.065700
     28 H3           3.0780     0.2610     1.4410 h1         1 XXT       0.069700
     29 H4          -2.0200     0.8560     1.0140 h1         1 XXT       0.081700
     30 H5           1.1260    -0.4140    -0.8220 hc         1 XXT       0.070700
     31 H6           0.6600     2.0170    -1.0080 h1         1 XXT       0.045700
     32 H7          -3.0280     3.6330    -2.6230 hc         1 XXT       0.066700
     33 H8          -1.3360     3.0100    -2.8480 hc         1 XXT       0.066700
     34 H9          -2.6320     1.9550    -3.1870 hc         1 XXT       0.066700
     35 H10          1.0940     1.1070     2.7450 hc         1 XXT       0.046033
     36 H11         -0.5320     1.7610     2.6000 hc         1 XXT       0.046033
     37 H12         -0.2870     0.0340     2.8170 hc         1 XXT       0.046033
     38 H13          0.3640     4.5380     0.3760 ho         1 XXT       0.448000
     39 H14         -1.4200    -1.3120    -0.9620 hc         1 XXT       0.084700
     40 H16         -4.2060     0.3860    -0.9200 ha         1 XXT       0.181500
     41 H17         -5.3740    -0.9050    -0.3140 ha         1 XXT       0.181500
     42 H19         -1.2950    -1.6450     2.0880 h1         1 XXT       0.065700
     43 H20          0.2390    -3.5360     1.3870 hc         1 XXT       0.061200
     44 H21          0.0770    -3.0340    -0.2820 hc         1 XXT       0.061200
     45 H22          1.3990    -1.5370     2.0120 hc         1 XXT       0.052700
     46 H23          3.4950    -1.9950     0.8680 hc         1 XXT       0.038700
     47 H24          2.5770    -3.4920     0.9730 hc         1 XXT       0.038700
     48 H25          2.6360    -2.6070    -0.5640 hc         1 XXT       0.038700
     49 H26          5.1680     0.7790    -2.5660 hc         1 XXT       0.069700
     50 H27          6.6740     0.5270    -1.5840 hc         1 XXT       0.069700
     51 H28          5.4670    -0.7800    -1.9440 hc         1 XXT       0.069700
     52 C18         -2.2950     2.2490    -1.0910 c          1 XXT       0.611100
@<TRIPOS>BOND
     1     1     2 1   
     2     1     6 1   
     3     1    26 1   
     4     1    27 1   
     5     2     5 1   
     6     2    22 1   
     7     2    28 1   
     8     3    52 2   
     9     4     7 1   
    10     4     9 1   
    11     4    12 1   
    12     4    29 1   
    13     5     7 1   
    14     5    20 1   
    15     5    30 1   
    16     6     7 1   
    17     6    11 1   
    18     6    31 1   
    19     7    10 1   
    20     8    32 1   
    21     8    33 1   
    22     8    34 1   
    23     8    52 1   
    24     9    52 1   
    25    10    35 1   
    26    10    36 1   
    27    10    37 1   
    28    11    38 1   
    29    12    13 1   
    30    12    18 1   
    31    12    39 1   
    32    13    14 2   
    33    13    15 1   
    34    14    40 1   
    35    14    41 1   
    36    15    16 2   
    37    15    17 1   
    38    17    18 1   
    39    18    19 1   
    40    18    42 1   
    41    19    20 1   
    42    19    43 1   
    43    19    44 1   
    44    20    21 1   
    45    20    45 1   
    46    21    46 1   
    47    21    47 1   
    48    21    48 1   
    49    22    23 1   
    50    23    24 2   
    51    23    25 1   
    52    25    49 1   
    53    25    50 1   
    54    25    51 1   
@<TRIPOS>SUBSTRUCTURE
     1 XXT         1 TEMP              0 ****  ****    0 ROOT
