@<TRIPOS>MOLECULE
XXT
   52    54     1     0     0
SMALL
abcg2


@<TRIPOS>ATOM
      1 C2           2.1600     2.0420     0.2500 c5         1 XXT      -0.140400
      2 C1           2.5380     0.5660     0.3920 c5         1 XXT       0.175300
      3 O7          -3.0540     2.5740     0.5660 o          1 XXT      -0.468000
      4 C6          -1.3440     0.4620     0.2990 c3         1 XXT       0.199300
      5 C5           1.2260    -0.2470     0.3330 c5         1 XXT      -0.058700
      6 C3           0.6710     2.0240    -0.0570 c5         1 XXT       0.172300
      7 C4           0.1300     0.8000     0.7140 c5         1 XXT      -0.045000
      8 C19         -2.7290     3.2030    -1.7290 c3         1 XXT      -0.154100
      9 O6          -1.7720     1.3010    -0.7690 os         1 XXT      -0.461100
     10 C15          0.1390     1.0870     2.2200 c3         1 XXT      -0.090100
     11 O2          -0.0040     3.2020     0.2990 oh         1 XXT      -0.654000
     12 C7          -1.5770    -0.9740    -0.1430 c5         1 XXT      -0.055500
     13 C11         -3.0010    -1.3560    -0.4340 ce         1 XXT      -0.235400
     14 C14         -3.9310    -0.7970    -1.1970 c2         1 XXT      -0.205000
     15 C12         -3.2620    -2.6510     0.2480 c          1 XXT       0.660300
     16 O3          -4.2440    -3.3310     0.2090 o          1 XXT      -0.484000
     17 O1          -2.1770    -2.9980     0.9490 os         1 XXT      -0.430100
     18 C8          -1.2040    -1.9500     0.9850 c5         1 XXT       0.177300
     19 C9           0.1780    -2.5390     0.8620 c3         1 XXT      -0.082400
     20 C10          1.3090    -1.5500     1.1530 c3         1 XXT      -0.047700
     21 C13          2.6260    -2.3010     0.9450 c3         1 XXT      -0.089100
     22 O4           3.3770     0.1050    -0.6700 os         1 XXT      -0.450100
     23 C16          4.6720     0.4230    -0.6170 c          1 XXT       0.593100
     24 O5           5.1580     1.0980     0.2490 o          1 XXT      -0.482000
     25 C17          5.4340    -0.2030    -1.7500 c3         1 XXT      -0.159100
     26 H1           2.3580     2.5780     1.1790 hc         1 XXT       0.065700
     27 H2           2.7280     2.5460    -0.5320 hc         1 XXT       0.065700
     28 H3           3.0500     0.4050     1.3430 h1         1 XXT       0.069700
     29 H4          -1.9900     0.6460     1.1610 h1         1 XXT       0.081700
     30 H5           1.0820    -0.5130    -0.7220 hc         1 XXT       0.070700
     31 H6           0.5550     1.8250    -1.1320 h1         1 XXT       0.045700
     32 H7          -3.3270     4.0800    -1.5000 hc         1 XXT       0.066700
     33 H8          -1.7650     3.5200    -2.1230 hc         1 XXT       0.066700
     34 H9          -3.2270     2.6390    -2.5180 hc         1 XXT       0.066700
     35 H10          1.1370     1.2940     2.6100 hc         1 XXT       0.046033
     36 H11         -0.4910     1.9430     2.4560 hc         1 XXT       0.046033
     37 H12         -0.2480     0.2460     2.7940 hc         1 XXT       0.046033
     38 H13          0.4310     3.9430    -0.1300 ho         1 XXT       0.448000
     39 H14         -0.9750    -1.1990    -1.0310 hc         1 XXT       0.084700
     40 H16         -3.7720     0.1100    -1.7590 ha         1 XXT       0.181500
     41 H17         -4.9050    -1.2600    -1.2870 ha         1 XXT       0.181500
     42 H19         -1.3130    -1.4600     1.9600 h1         1 XXT       0.065700
     43 H20          0.2670    -3.3760     1.5610 hc         1 XXT       0.061200
     44 H21          0.3040    -2.9560    -0.1430 hc         1 XXT       0.061200
     45 H22          1.2570    -1.2840     2.2150 hc         1 XXT       0.052700
     46 H23          3.4930    -1.7460     1.2990 hc         1 XXT       0.038700
     47 H24          2.6070    -3.2380     1.5030 hc         1 XXT       0.038700
     48 H25          2.7890    -2.5470    -0.1060 hc         1 XXT       0.038700
     49 H26          4.8400    -0.2660    -2.6590 hc         1 XXT       0.069700
     50 H27          6.3450     0.3570    -1.9440 hc         1 XXT       0.069700
     51 H28          5.7200    -1.2190    -1.4720 hc         1 XXT       0.069700
     52 C18         -2.5480     2.3610    -0.5020 c          1 XXT       0.611100
@<TRIPOS>BOND
     1     1     2 1   
     2     1     6 1   
     3     1    26 1   
     4     1    27 1   
     5     2     5 1   
     6     2    22 1   
     7     2    28 1   
     8     3    52 2   
     9     4     7 1   
    10     4     9 1   
    11     4    12 1   
    12     4    29 1   
    13     5     7 1   
    14     5    20 1   
    15     5    30 1   
    16     6     7 1   
    17     6    11 1   
    18     6    31 1   
    19     7    10 1   
    20     8    32 1   
    21     8    33 1   
    22     8    34 1   
    23     8    52 1   
    24     9    52 1   
    25    10    35 1   
    26    10    36 1   
    27    10    37 1   
    28    11    38 1   
    29    12    13 1   
    30    12    18 1   
    31    12    39 1   
    32    13    14 2   
    33    13    15 1   
    34    14    40 1   
    35    14    41 1   
    36    15    16 2   
    37    15    17 1   
    38    17    18 1   
    39    18    19 1   
    40    18    42 1   
    41    19    20 1   
    42    19    43 1   
    43    19    44 1   
    44    20    21 1   
    45    20    45 1   
    46    21    46 1   
    47    21    47 1   
    48    21    48 1   
    49    22    23 1   
    50    23    24 2   
    51    23    25 1   
    52    25    49 1   
    53    25    50 1   
    54    25    51 1   
@<TRIPOS>SUBSTRUCTURE
     1 XXT         1 TEMP              0 ****  ****    0 ROOT
