@<TRIPOS>MOLECULE
XXV
   51    55     1     0     0
SMALL
No Charge or Current Charge


@<TRIPOS>ATOM
      1 C10        130.9040  -173.4430   114.8280 c6         1 XXV       0.199500
      2 C15       -131.2620  -173.7340   117.3210 c6         1 XXV       0.183800
      3 C17        126.8390  -172.6820   115.6230 cp         1 XXV       0.253500
      4 C20       -123.7940  -171.9940   113.3750 ca         1 XXV       0.342900
      5 C22        125.0590  -173.5990   112.3190 ca         1 XXV       0.351500
      6 C24       -126.9810  -174.5910   112.9920 cc         1 XXV      -0.221200
      7 C03        126.7680  -171.4620   119.0800 cx         1 XXV      -0.438300
      8 C04       -125.5450  -172.0330   119.7810 cx         1 XXV      -0.075400
      9 C05        126.9160  -172.2140   120.3940 cx         1 XXV      -0.075400
     10 C06       -127.2690  -172.0540   117.8030 ca         1 XXV       0.203300
     11 C07        128.5870  -172.5120   117.6760 ca         1 XXV      -0.272000
     12 C08       -128.9710  -173.0610   116.4420 ca         1 XXV       0.399900
     13 C11        131.3860  -171.9860   114.5920 c3         1 XXV      -0.109100
     14 C12       -132.0580  -174.4760   114.6220 c6         1 XXV       0.141600
     15 C14        132.4010  -174.7400   116.9800 c6         1 XXV       0.142600
     16 C18       -125.8600  -172.7490   114.4780 cp         1 XXV      -0.074500
     17 C19        124.6940  -171.9320   114.4550 ca         1 XXV      -0.141000
     18 C23       -125.9950  -173.6000   113.3440 ca         1 XXV      -0.092800
     19 C25        126.6200  -175.1360   111.7740 cd         1 XXV      -0.162100
     20 N01       -126.4650  -169.1390   120.4680 n8         1 XXV      -1.027100
     21 N09        130.2800  -173.5500   116.1970 nh         1 XXV      -0.774300
     22 N16       -128.0920  -173.1380   115.4260 nb         1 XXV      -0.251000
     23 N21        123.9670  -172.8140   112.3130 nb         1 XXV      -0.673000
     24 N26       -125.4250  -174.5150   111.3520 na         1 XXV      -0.328400
     25 N27        126.4000  -172.1440   116.7810 nb         1 XXV      -0.222000
     26 O13       -133.0090  -174.4250   115.7090 os         1 XXV      -0.437000
     27 O28        128.4680  -169.3280   119.0420 o          1 XXV      -0.509500
     28 O29       -126.1560  -169.0190   118.0250 o          1 XXV      -0.509500
     29 S02        127.0380  -169.6270   119.0180 s6         1 XXV       1.233100
     30 H1        -130.1580  -173.6650   114.0500 h1         1 XXV       0.093700
     31 H2         130.7490  -174.1120   118.2170 h1         1 XXV       0.052200
     32 H3        -131.7120  -172.7660   117.5860 h1         1 XXV       0.052200
     33 H4         122.9060  -171.3620   113.3600 h4         1 XXV       0.023100
     34 H5        -127.8540  -174.8960   113.5650 ha         1 XXV       0.213000
     35 H6         125.0700  -172.9110   119.3490 hc         1 XXV       0.082200
     36 H7        -124.8570  -171.3520   120.2760 hc         1 XXV       0.082200
     37 H8         127.1430  -171.6540   121.2980 hc         1 XXV       0.082200
     38 H9        -127.3480  -173.2120   120.3680 hc         1 XXV       0.082200
     39 H10        129.2760  -172.4240   118.5070 ha         1 XXV       0.129000
     40 H11       -130.5570  -171.2750   114.6850 hc         1 XXV       0.047033
     41 H12        131.8070  -171.8710   113.5870 hc         1 XXV       0.047033
     42 H13       -132.1600  -171.6960   115.3130 hc         1 XXV       0.047033
     43 H14        132.5790  -174.2750   113.6760 h1         1 XXV       0.056200
     44 H15       -131.6370  -175.4910   114.5630 h1         1 XXV       0.056200
     45 H16        133.1700  -174.7120   117.7650 h1         1 XXV       0.053700
     46 H17       -131.9940  -175.7610   116.9410 h1         1 XXV       0.053700
     47 H18        124.4810  -171.2370   115.2630 ha         1 XXV       0.154000
     48 H19       -127.1120  -175.9130   111.1900 h4         1 XXV       0.211000
     49 H20        125.8120  -168.4160   120.1770 hn         1 XXV       0.482500
     50 H21       -127.2510  -168.5900   120.8050 hn         1 XXV       0.482500
     51 H22        124.9080  -174.7000   110.5010 hn         1 XXV       0.360000
@<TRIPOS>BOND
     1     1    13 1   
     2     1    14 1   
     3     1    21 1   
     4     1    30 1   
     5     2    15 1   
     6     2    21 1   
     7     2    31 1   
     8     2    32 1   
     9     3    16 1   
    10     3    22 ar  
    11     3    25 ar  
    12     4    17 ar  
    13     4    23 ar  
    14     4    33 1   
    15     5    18 ar  
    16     5    23 ar  
    17     5    24 1   
    18     6    18 1   
    19     6    19 2   
    20     6    34 1   
    21     7     8 1   
    22     7     9 1   
    23     7    10 1   
    24     7    29 1   
    25     8     9 1   
    26     8    35 1   
    27     8    36 1   
    28     9    37 1   
    29     9    38 1   
    30    10    11 ar  
    31    10    25 ar  
    32    11    12 ar  
    33    11    39 1   
    34    12    21 1   
    35    12    22 ar  
    36    13    40 1   
    37    13    41 1   
    38    13    42 1   
    39    14    26 1   
    40    14    43 1   
    41    14    44 1   
    42    15    26 1   
    43    15    45 1   
    44    15    46 1   
    45    16    17 ar  
    46    16    18 ar  
    47    17    47 1   
    48    19    24 1   
    49    19    48 1   
    50    20    29 1   
    51    20    49 1   
    52    20    50 1   
    53    24    51 1   
    54    27    29 2   
    55    28    29 2   
@<TRIPOS>SUBSTRUCTURE
     1 XXV         1 TEMP              0 ****  ****    0 ROOT
