@<TRIPOS>MOLECULE
XXV
   51    55     1     0     0
SMALL
abcg2


@<TRIPOS>ATOM
      1 C10       -130.7690  -173.7500   114.8750 c6         1 XXV       0.199500
      2 C15       -131.3400  -173.4280   117.2500 c6         1 XXV       0.183800
      3 C17       -126.9630  -172.5900   115.6520 cp         1 XXV       0.253500
      4 C20       -123.9880  -171.7990   113.4750 ca         1 XXV       0.342900
      5 C22       -125.2270  -173.2680   112.3450 ca         1 XXV       0.351500
      6 C24       -127.1780  -174.3200   112.8770 cc         1 XXV      -0.221200
      7 C03       -126.8160  -171.4560   119.0680 cx         1 XXV      -0.438300
      8 C04       -126.1570  -172.3660   120.0620 cx         1 XXV      -0.075400
      9 C05       -127.4610  -171.7250   120.3920 cx         1 XXV      -0.075400
     10 C06       -127.3630  -172.0280   117.8020 ca         1 XXV       0.203300
     11 C07       -128.6690  -172.4370   117.6910 ca         1 XXV      -0.272000
     12 C08       -129.0620  -173.0010   116.4560 ca         1 XXV       0.399900
     13 C11       -131.3580  -172.4840   114.2610 c3         1 XXV      -0.109100
     14 C12       -131.7560  -174.9080   114.8910 c6         1 XXV       0.141600
     15 C14       -132.3160  -174.5820   117.0970 c6         1 XXV       0.142600
     16 C18       -126.0220  -172.6060   114.5100 cp         1 XXV      -0.074500
     17 C19       -124.8760  -171.8180   114.5490 ca         1 XXV      -0.141000
     18 C23       -126.2210  -173.3760   113.3560 ca         1 XXV      -0.092800
     19 C25       -126.7460  -174.7280   111.6470 cd         1 XXV      -0.162100
     20 N01       -125.9470  -169.0440   120.1800 n8         1 XXV      -1.027100
     21 N09       -130.2970  -173.5060   116.2410 nh         1 XXV      -0.774300
     22 N16       -128.1890  -173.0420   115.4440 nb         1 XXV      -0.251000
     23 N21       -124.1440  -172.5140   112.3700 nb         1 XXV      -0.673000
     24 N26       -125.5810  -174.0960   111.3250 na         1 XXV      -0.328400
     25 N27       -126.4950  -172.1070   116.7930 nb         1 XXV      -0.222000
     26 O13       -132.8180  -174.6850   115.7870 os         1 XXV      -0.437000
     27 O28       -126.9180  -169.1170   117.8960 o          1 XXV      -0.509500
     28 O29       -124.6460  -170.0980   118.3640 o          1 XXV      -0.509500
     29 S02       -126.0250  -169.8670   118.7640 s6         1 XXV       1.233100
     30 H1        -129.9170  -174.0680   114.2790 h1         1 XXV       0.093700
     31 H2        -130.9080  -173.5060   118.2460 h1         1 XXV       0.052200
     32 H3        -131.8670  -172.4690   117.1960 h1         1 XXV       0.052200
     33 H4        -123.1070  -171.1680   113.5220 h4         1 XXV       0.023100
     34 H5        -128.0670  -174.6630   113.3730 ha         1 XXV       0.213000
     35 H6        -126.1390  -173.4190   119.8140 hc         1 XXV       0.082200
     36 H7        -125.2670  -172.0140   120.5700 hc         1 XXV       0.082200
     37 H8        -127.4720  -170.9410   121.1370 hc         1 XXV       0.082200
     38 H9        -128.3540  -172.3350   120.3910 hc         1 XXV       0.082200
     39 H10       -129.3540  -172.3080   118.5120 ha         1 XXV       0.129000
     40 H11       -130.6220  -171.6800   114.2510 hc         1 XXV       0.047033
     41 H12       -131.6580  -172.6730   113.2290 hc         1 XXV       0.047033
     42 H13       -132.2360  -172.1360   114.8050 hc         1 XXV       0.047033
     43 H14       -132.1830  -175.0340   113.8940 h1         1 XXV       0.056200
     44 H15       -131.2250  -175.8350   115.1500 h1         1 XXV       0.056200
     45 H16       -133.1610  -174.4280   117.7700 h1         1 XXV       0.053700
     46 H17       -131.8170  -175.5170   117.3890 h1         1 XXV       0.053700
     47 H18       -124.6700  -171.2040   115.4140 ha         1 XXV       0.154000
     48 H19       -127.1930  -175.4330   110.9650 h4         1 XXV       0.211000
     49 H20       -126.8370  -168.7780   120.5840 hn         1 XXV       0.482500
     50 H21       -125.2920  -169.4040   120.8650 hn         1 XXV       0.482500
     51 H22       -125.0560  -174.2280   110.4760 hn         1 XXV       0.360000
@<TRIPOS>BOND
     1     1    13 1   
     2     1    14 1   
     3     1    21 1   
     4     1    30 1   
     5     2    15 1   
     6     2    21 1   
     7     2    31 1   
     8     2    32 1   
     9     3    16 1   
    10     3    22 ar  
    11     3    25 ar  
    12     4    17 ar  
    13     4    23 ar  
    14     4    33 1   
    15     5    18 ar  
    16     5    23 ar  
    17     5    24 1   
    18     6    18 1   
    19     6    19 2   
    20     6    34 1   
    21     7     8 1   
    22     7     9 1   
    23     7    10 1   
    24     7    29 1   
    25     8     9 1   
    26     8    35 1   
    27     8    36 1   
    28     9    37 1   
    29     9    38 1   
    30    10    11 ar  
    31    10    25 ar  
    32    11    12 ar  
    33    11    39 1   
    34    12    21 1   
    35    12    22 ar  
    36    13    40 1   
    37    13    41 1   
    38    13    42 1   
    39    14    26 1   
    40    14    43 1   
    41    14    44 1   
    42    15    26 1   
    43    15    45 1   
    44    15    46 1   
    45    16    17 ar  
    46    16    18 ar  
    47    17    47 1   
    48    19    24 1   
    49    19    48 1   
    50    20    29 1   
    51    20    49 1   
    52    20    50 1   
    53    24    51 1   
    54    27    29 2   
    55    28    29 2   
@<TRIPOS>SUBSTRUCTURE
     1 XXV         1 TEMP              0 ****  ****    0 ROOT
