@<TRIPOS>MOLECULE
XXW
   74    77     1     0     0
SMALL
abcg2


@<TRIPOS>ATOM
      1 C1          51.5840    28.9850     2.4180 c3         1 XXW      -0.101100
      2 C7          56.0350    30.6280    -2.3760 cc         1 XXW      -0.120000
      3 C9          58.1650    31.8660    -2.7200 c3         1 XXW       0.327300
      4 C13         55.9590    31.0130    -0.2130 cd         1 XXW       0.266900
      5 N18         51.2150    25.5490    -4.5000 na         1 XXW       0.119800
      6 C19         50.2270    24.8810    -5.2920 c3         1 XXW       0.315600
      7 C21         49.0660    25.0250    -7.3050 c3         1 XXW       0.150900
      8 N22         52.5110    25.4020    -4.7790 nc         1 XXW      -0.507800
      9 C23         53.1360    26.2200    -3.9620 cd         1 XXW       0.256900
     10 C24         51.6530    28.1460    -1.0410 ca         1 XXW      -0.084000
     11 N25         50.5190    30.7170     1.0840 ns         1 XXW      -0.504900
     12 C28         50.6900    33.4110     0.0100 ca         1 XXW      -0.183000
     13 C35         55.9030    34.9860     0.7800 c3         1 XXW       0.160600
     14 C36         49.4400    35.4540    -0.0110 ca         1 XXW      -0.126000
     15 C26         49.6160    31.1990     0.2100 c          1 XXW       0.614700
     16 C27         49.5070    32.6920     0.1820 ca         1 XXW      -0.112600
     17 C2          50.9680    29.3360     1.0710 c3         1 XXW       0.161000
     18 C3          51.9330    29.0980    -0.0740 ca         1 XXW      -0.099300
     19 C4          53.1110    29.8340    -0.1600 ca         1 XXW      -0.102000
     20 C5          54.0140    29.6130    -1.1950 ca         1 XXW       0.004000
     21 C6          55.2600    30.3770    -1.2700 cd         1 XXW      -0.145000
     22 C14         53.7150    28.6490    -2.1590 ca         1 XXW      -0.096000
     23 C15         52.5360    27.9140    -2.1000 ca         1 XXW       0.024000
     24 C16         52.2330    26.9220    -3.1300 cd         1 XXW      -0.163000
     25 C17         50.9990    26.4530    -3.5250 cc         1 XXW      -0.131000
     26 C29         50.6660    34.7970    -0.0930 ca         1 XXW       0.138100
     27 C31         53.0310    34.9340    -0.3040 c3         1 XXW       0.122600
     28 C32         54.0740    36.0440    -0.4150 c3         1 XXW       0.173800
     29 C34         55.8040    34.8390    -1.6200 c3         1 XXW       0.160600
     30 C37         48.2760    34.7270     0.1650 ca         1 XXW      -0.086000
     31 C38         48.2710    33.3350     0.2560 ca         1 XXW      -0.059300
     32 C39         46.9740    32.6000     0.4440 c3         1 XXW      -0.043800
     33 F10         57.6890    32.7030    -3.6690 f          1 XXW      -0.108000
     34 F11         58.7820    30.8620    -3.3780 f          1 XXW      -0.108000
     35 N12         57.0590    31.5900    -0.6320 nc         1 XXW      -0.512800
     36 N33         55.4500    35.6030    -0.4460 n3         1 XXW      -0.730600
     37 N8          57.0940    31.3510    -1.9460 na         1 XXW       0.035800
     38 O20         50.0060    25.6310    -6.4470 os         1 XXW      -0.458000
     39 O30         51.7600    35.5610    -0.2690 os         1 XXW      -0.344100
     40 O40         48.9470    30.4860    -0.5220 o          1 XXW      -0.592100
     41 H1B         50.8520    29.1050     3.2180 hc         1 XXW       0.044367
     42 H1A         51.9210    27.9500     2.4170 hc         1 XXW       0.044367
     43 H1C         52.4450    29.6170     2.6460 hc         1 XXW       0.044367
     44 H7          55.9040    30.3570    -3.4120 h4         1 XXW       0.172000
     45 H9          58.8660    32.3880    -2.0720 h3         1 XXW       0.112700
     46 H13         55.6940    31.0480     0.8330 h4         1 XXW       0.041100
     47 H19A        50.5980    23.8770    -5.5220 h2         1 XXW       0.049200
     48 H19B        49.3170    24.7850    -4.6890 h2         1 XXW       0.049200
     49 H21B        48.9510    25.6700    -8.1740 h1         1 XXW       0.036033
     50 H21A        49.3990    24.0380    -7.6460 h1         1 XXW       0.036033
     51 H21C        48.0880    24.9080    -6.8260 h1         1 XXW       0.036033
     52 H23         54.2140    26.2760    -3.9680 h4         1 XXW       0.038100
     53 H24         50.7410    27.5650    -0.9660 ha         1 XXW       0.118000
     54 H25         51.0340    31.3700     1.6550 hn         1 XXW       0.313500
     55 H28         51.6240    32.8700    -0.0650 ha         1 XXW       0.119000
     56 H35B        56.9890    34.8740     0.7540 h1         1 XXW       0.030867
     57 H35C        55.6550    35.6220     1.6310 h1         1 XXW       0.030867
     58 H35A        55.4810    33.9890     0.9730 h1         1 XXW       0.030867
     59 H36         49.4030    36.5340    -0.0830 ha         1 XXW       0.129000
     60 H2          50.0920    28.7030     0.9210 h1         1 XXW       0.078700
     61 H4          53.3200    30.5960     0.5830 ha         1 XXW       0.103000
     62 H14         54.4130    28.4740    -2.9690 ha         1 XXW       0.114000
     63 H17         50.0020    26.7000    -3.1940 h4         1 XXW       0.162000
     64 H31A        53.1890    34.3440     0.6060 h1         1 XXW       0.035200
     65 H31B        53.0950    34.2500    -1.1570 h1         1 XXW       0.035200
     66 H32B        53.8770    36.6230    -1.3220 h1         1 XXW       0.064700
     67 H32A        53.9480    36.7270     0.4310 h1         1 XXW       0.064700
     68 H34A        56.8870    34.7130    -1.6590 h1         1 XXW       0.030867
     69 H34B        55.3580    33.8350    -1.6620 h1         1 XXW       0.030867
     70 H34C        55.5010    35.3770    -2.5200 h1         1 XXW       0.030867
     71 H37         47.3370    35.2620     0.2370 ha         1 XXW       0.116000
     72 H39B        46.6490    32.1150    -0.4770 hc         1 XXW       0.047700
     73 H39C        47.0460    31.8260     1.2070 hc         1 XXW       0.047700
     74 H39A        46.1870    33.2900     0.7470 hc         1 XXW       0.047700
@<TRIPOS>BOND
     1     1    17 1   
     2     1    41 1   
     3     1    42 1   
     4     1    43 1   
     5     2    21 2   
     6     2    37 1   
     7     2    44 1   
     8     3    33 1   
     9     3    34 1   
    10     3    37 1   
    11     3    45 1   
    12     4    21 1   
    13     4    35 2   
    14     4    46 1   
    15     5     6 1   
    16     5     8 1   
    17     5    25 1   
    18     6    38 1   
    19     6    47 1   
    20     6    48 1   
    21     7    38 1   
    22     7    49 1   
    23     7    50 1   
    24     7    51 1   
    25     8     9 2   
    26     9    24 1   
    27     9    52 1   
    28    10    18 ar  
    29    10    23 ar  
    30    10    53 1   
    31    11    15 1   
    32    11    17 1   
    33    11    54 1   
    34    12    16 ar  
    35    12    26 ar  
    36    12    55 1   
    37    13    36 1   
    38    13    56 1   
    39    13    57 1   
    40    13    58 1   
    41    14    26 ar  
    42    14    30 ar  
    43    14    59 1   
    44    15    16 1   
    45    15    40 2   
    46    16    31 ar  
    47    17    18 1   
    48    17    60 1   
    49    18    19 ar  
    50    19    20 ar  
    51    19    61 1   
    52    20    21 1   
    53    20    22 ar  
    54    22    23 ar  
    55    22    62 1   
    56    23    24 1   
    57    24    25 2   
    58    25    63 1   
    59    26    39 1   
    60    27    28 1   
    61    27    39 1   
    62    27    64 1   
    63    27    65 1   
    64    28    36 1   
    65    28    66 1   
    66    28    67 1   
    67    29    36 1   
    68    29    68 1   
    69    29    69 1   
    70    29    70 1   
    71    30    31 ar  
    72    30    71 1   
    73    31    32 1   
    74    32    72 1   
    75    32    73 1   
    76    32    74 1   
    77    35    37 1   
@<TRIPOS>SUBSTRUCTURE
     1 XXW         1 TEMP              0 ****  ****    0 ROOT
