@<TRIPOS>MOLECULE
XXW
   74    77     1     0     0
SMALL
No Charge or Current Charge


@<TRIPOS>ATOM
      1 C1          50.9380    28.7520     2.1210 c3         1 XXW      -0.101100
      2 C7          56.4620    30.3080    -1.6640 cc         1 XXW      -0.120000
      3 C9          58.7340    31.4890    -1.5780 c3         1 XXW       0.327300
      4 C13         55.7570    31.1420     0.2770 cd         1 XXW       0.266900
      5 N18         51.6880    25.8100    -4.9540 na         1 XXW       0.119800
      6 C19         50.8020    24.8840    -5.6960 c3         1 XXW       0.315600
      7 C21         49.3050    24.8080    -7.5950 c3         1 XXW       0.150900
      8 N22         52.9740    26.0630    -5.3970 nc         1 XXW      -0.507800
      9 C23         53.4370    26.8940    -4.4830 cd         1 XXW       0.256900
     10 C24         51.6560    28.2530    -1.3570 ca         1 XXW      -0.084000
     11 N25         50.4390    30.7790     0.7980 ns         1 XXW      -0.504900
     12 C28         50.3990    33.5450     0.2300 ca         1 XXW      -0.183000
     13 C35         55.9390    34.9810    -0.3050 c3         1 XXW       0.160600
     14 C36         49.4170    35.7450     0.4920 ca         1 XXW      -0.126000
     15 C26         49.2190    31.4000     0.9370 c          1 XXW       0.614700
     16 C27         49.2560    32.9250     0.8090 ca         1 XXW      -0.112600
     17 C2          50.6780    29.3420     0.7230 c3         1 XXW       0.161000
     18 C3          51.8350    29.0910    -0.2410 ca         1 XXW      -0.099300
     19 C4          53.0720    29.7410    -0.0580 ca         1 XXW      -0.102000
     20 C5          54.1160    29.5850    -0.9880 ca         1 XXW       0.004000
     21 C6          55.3900    30.3110    -0.8100 cd         1 XXW      -0.145000
     22 C14         53.9160    28.7410    -2.1000 ca         1 XXW      -0.096000
     23 C15         52.6940    28.0630    -2.2920 ca         1 XXW       0.024000
     24 C16         52.4990    27.1810    -3.4600 cd         1 XXW      -0.163000
     25 C17         51.3690    26.4700    -3.7700 cc         1 XXW      -0.131000
     26 C29         50.4850    34.9430     0.0780 ca         1 XXW       0.138100
     27 C31         52.8040    34.8360    -0.7640 c3         1 XXW       0.122600
     28 C32         53.8440    35.8200    -1.3580 c3         1 XXW       0.173800
     29 C34         55.2680    34.1320    -2.5190 c3         1 XXW       0.160600
     30 C37         48.2790    35.1610     1.0650 ca         1 XXW      -0.086000
     31 C38         48.1820    33.7640     1.2340 ca         1 XXW      -0.059300
     32 C39         46.9180    33.2180     1.8950 c3         1 XXW      -0.043800
     33 F10         58.6190    32.1450    -2.7570 f          1 XXW      -0.108000
     34 F11         59.4570    30.3690    -1.8150 f          1 XXW      -0.108000
     35 N12         56.9680    31.6530     0.1570 nc         1 XXW      -0.512800
     36 N33         55.2150    35.2650    -1.5650 n3         1 XXW      -0.730600
     37 N8          57.3960    31.1390    -1.0510 na         1 XXW       0.035800
     38 O20         50.1880    25.6040    -6.7870 os         1 XXW      -0.458000
     39 O30         51.5910    35.5600    -0.4760 os         1 XXW      -0.344100
     40 O40         48.1980    30.7450     1.0960 o          1 XXW      -0.592100
     41 H1B         50.0730    28.9160     2.7750 hc         1 XXW       0.044367
     42 H1A         51.1140    27.6720     2.0520 hc         1 XXW       0.044367
     43 H1C         51.8150    29.2150     2.5880 hc         1 XXW       0.044367
     44 H7          56.6390    29.8190    -2.6150 h4         1 XXW       0.172000
     45 H9          59.2540    32.1190    -0.8520 h3         1 XXW       0.112700
     46 H13         55.1770    31.3900     1.1560 h4         1 XXW       0.041100
     47 H19A        51.4100    24.0480    -6.0600 h2         1 XXW       0.049200
     48 H19B        50.0500    24.4990    -4.9980 h2         1 XXW       0.049200
     49 H21B        48.8760    25.4150    -8.4020 h1         1 XXW       0.036033
     50 H21A        49.8440    23.9670    -8.0510 h1         1 XXW       0.036033
     51 H21C        48.4790    24.4070    -6.9930 h1         1 XXW       0.036033
     52 H23         54.4480    27.2660    -4.5880 h4         1 XXW       0.038100
     53 H24         50.7000    27.7570    -1.4970 ha         1 XXW       0.118000
     54 H25         51.2350    31.3890     0.6840 hn         1 XXW       0.313500
     55 H28         51.2190    32.9350    -0.1310 ha         1 XXW       0.119000
     56 H35B        56.9790    34.6950    -0.5120 h1         1 XXW       0.030867
     57 H35C        55.9570    35.8680     0.3420 h1         1 XXW       0.030867
     58 H35A        55.4640    34.1610     0.2490 h1         1 XXW       0.030867
     59 H36         49.4750    36.8240     0.3730 ha         1 XXW       0.129000
     60 H2          49.7750    28.8640     0.3170 h1         1 XXW       0.078700
     61 H4          53.2050    30.3900     0.8030 ha         1 XXW       0.103000
     62 H14         54.7160    28.6120    -2.8190 ha         1 XXW       0.114000
     63 H17         50.4060    26.3770    -3.2850 h4         1 XXW       0.162000
     64 H31A        53.2010    34.3880     0.1550 h1         1 XXW       0.035200
     65 H31B        52.6140    34.0360    -1.4910 h1         1 XXW       0.035200
     66 H32B        53.4480    36.1860    -2.3150 h1         1 XXW       0.064700
     67 H32A        53.9010    36.6930    -0.6930 h1         1 XXW       0.064700
     68 H34A        56.3090    33.8660    -2.7460 h1         1 XXW       0.030867
     69 H34B        54.7740    33.2420    -2.1050 h1         1 XXW       0.030867
     70 H34C        54.7730    34.3950    -3.4640 h1         1 XXW       0.030867
     71 H37         47.4640    35.8070     1.3860 ha         1 XXW       0.116000
     72 H39B        46.3160    32.6420     1.1830 hc         1 XXW       0.047700
     73 H39C        47.1610    32.5710     2.7450 hc         1 XXW       0.047700
     74 H39A        46.2790    34.0220     2.2810 hc         1 XXW       0.047700
@<TRIPOS>BOND
     1     1    17 1   
     2     1    41 1   
     3     1    42 1   
     4     1    43 1   
     5     2    21 2   
     6     2    37 1   
     7     2    44 1   
     8     3    33 1   
     9     3    34 1   
    10     3    37 1   
    11     3    45 1   
    12     4    21 1   
    13     4    35 2   
    14     4    46 1   
    15     5     6 1   
    16     5     8 1   
    17     5    25 1   
    18     6    38 1   
    19     6    47 1   
    20     6    48 1   
    21     7    38 1   
    22     7    49 1   
    23     7    50 1   
    24     7    51 1   
    25     8     9 2   
    26     9    24 1   
    27     9    52 1   
    28    10    18 ar  
    29    10    23 ar  
    30    10    53 1   
    31    11    15 1   
    32    11    17 1   
    33    11    54 1   
    34    12    16 ar  
    35    12    26 ar  
    36    12    55 1   
    37    13    36 1   
    38    13    56 1   
    39    13    57 1   
    40    13    58 1   
    41    14    26 ar  
    42    14    30 ar  
    43    14    59 1   
    44    15    16 1   
    45    15    40 2   
    46    16    31 ar  
    47    17    18 1   
    48    17    60 1   
    49    18    19 ar  
    50    19    20 ar  
    51    19    61 1   
    52    20    21 1   
    53    20    22 ar  
    54    22    23 ar  
    55    22    62 1   
    56    23    24 1   
    57    24    25 2   
    58    25    63 1   
    59    26    39 1   
    60    27    28 1   
    61    27    39 1   
    62    27    64 1   
    63    27    65 1   
    64    28    36 1   
    65    28    66 1   
    66    28    67 1   
    67    29    36 1   
    68    29    68 1   
    69    29    69 1   
    70    29    70 1   
    71    30    31 ar  
    72    30    71 1   
    73    31    32 1   
    74    32    72 1   
    75    32    73 1   
    76    32    74 1   
    77    35    37 1   
@<TRIPOS>SUBSTRUCTURE
     1 XXW         1 TEMP              0 ****  ****    0 ROOT
