@<TRIPOS>MOLECULE
XXX
   48    49     1     0     0
SMALL
bcc


@<TRIPOS>ATOM
      1 O3           1.6270     2.3800     0.0570 oh         1 XXX      -0.649800
      2 C4           2.0040     1.1140     0.5330 c6         1 XXX       0.113100
      3 C5           3.5250     1.0320     0.4610 c6         1 XXX       0.165100
      4 O4           4.1160     2.0420     1.2440 oh         1 XXX      -0.576800
      5 C6           4.0120    -0.3310     0.9390 c6         1 XXX       0.157500
      6 N1           5.4650    -0.3930     0.8930 n8         1 XXX      -0.854800
      7 C7           3.3270    -1.4270     0.1220 c6         1 XXX      -0.121400
      8 C8           1.8060    -1.3830     0.1970 c6         1 XXX       0.161500
      9 N2           1.2490    -2.4160    -0.6630 n8         1 XXX      -0.902800
     10 C9           1.3330    -0.0080    -0.2540 c6         1 XXX       0.134100
     11 O5          -0.0590     0.1400    -0.0400 os         1 XXX      -0.455600
     12 C10         -0.9300     0.2080    -1.1190 c6         1 XXX       0.352900
     13 O6          -1.6860    -0.9610    -1.2260 os         1 XXX      -0.397600
     14 C11         -2.4790    -1.2590    -0.0880 c6         1 XXX       0.151100
     15 C12         -3.1160    -2.6160    -0.3250 c3         1 XXX       0.155800
     16 N3          -2.0940    -3.6530    -0.3330 n8         1 XXX      -0.883800
     17 C13         -3.4820    -0.1290     0.1380 c6         1 XXX       0.105100
     18 O7          -4.2210    -0.4220     1.2980 oh         1 XXX      -0.595800
     19 C14         -2.7390     1.2010     0.2760 c6         1 XXX       0.106100
     20 O8          -3.6770     2.2580     0.3800 oh         1 XXX      -0.613800
     21 C15         -1.8500     1.4210    -0.9420 c6         1 XXX       0.117500
     22 N4          -1.0530     2.6320    -0.8070 n8         1 XXX      -0.892800
     23 HO3          0.6500     2.4250    -0.0780 ho         1 XXX       0.460000
     24 H4           1.7150     0.9910     1.5930 h1         1 XXX       0.045700
     25 H5           3.8210     1.1430    -0.5980 h1         1 XXX       0.031700
     26 HO4          3.7030     2.8760     0.9970 ho         1 XXX       0.417000
     27 H6           3.7170    -0.4440     1.9900 h1         1 XXX       0.070700
     28 HN11         5.7640    -1.3010     1.2290 hn         1 XXX       0.333800
     29 HN12         5.7730    -0.3480    -0.0730 hn         1 XXX       0.333800
     30 H71          3.6810    -2.4030     0.4680 hc         1 XXX       0.049200
     31 H72          3.6320    -1.3390    -0.9280 hc         1 XXX       0.049200
     32 H8           1.5110    -1.5040     1.2530 h1         1 XXX       0.026700
     33 HN21         1.5880    -3.3180    -0.3530 hn         1 XXX       0.356800
     34 HN22         0.2390    -2.4630    -0.5780 hn         1 XXX       0.356800
     35 H9           1.5650     0.1050    -1.3240 h1         1 XXX       0.060700
     36 H10         -0.3750     0.2930    -2.0620 h2         1 XXX       0.079700
     37 H11         -1.8450    -1.3360     0.8080 h1         1 XXX       0.060700
     38 H121        -3.6210    -2.6080    -1.2960 h1         1 XXX       0.048200
     39 H122        -3.8940    -2.7740     0.4300 h1         1 XXX       0.048200
     40 HN31        -1.7750    -3.8140     0.6140 hn         1 XXX       0.338300
     41 HN32        -2.5020    -4.5270    -0.6370 hn         1 XXX       0.338300
     42 H13         -4.1390    -0.0660    -0.7450 h1         1 XXX       0.052700
     43 HO7         -4.8640     0.2830     1.4280 ho         1 XXX       0.415000
     44 H14         -2.1110     1.1620     1.1750 h1         1 XXX       0.072700
     45 HO8         -3.6090     2.6540     1.2530 ho         1 XXX       0.414000
     46 H15         -2.4990     1.4600    -1.8290 h1         1 XXX       0.053700
     47 HN41        -0.7650     2.9480    -1.7260 hn         1 XXX       0.356300
     48 HN42        -1.6300     3.3780    -0.4370 hn         1 XXX       0.356300
@<TRIPOS>BOND
     1     1     2 1   
     2     1    23 1   
     3     2     3 1   
     4     2    10 1   
     5     2    24 1   
     6     3     4 1   
     7     3     5 1   
     8     3    25 1   
     9     4    26 1   
    10     5     6 1   
    11     5     7 1   
    12     5    27 1   
    13     6    28 1   
    14     6    29 1   
    15     7     8 1   
    16     7    30 1   
    17     7    31 1   
    18     8     9 1   
    19     8    10 1   
    20     8    32 1   
    21     9    33 1   
    22     9    34 1   
    23    10    11 1   
    24    10    35 1   
    25    11    12 1   
    26    12    13 1   
    27    12    21 1   
    28    12    36 1   
    29    13    14 1   
    30    14    15 1   
    31    14    17 1   
    32    14    37 1   
    33    15    16 1   
    34    15    38 1   
    35    15    39 1   
    36    16    40 1   
    37    16    41 1   
    38    17    18 1   
    39    17    19 1   
    40    17    42 1   
    41    18    43 1   
    42    19    20 1   
    43    19    21 1   
    44    19    44 1   
    45    20    45 1   
    46    21    22 1   
    47    21    46 1   
    48    22    47 1   
    49    22    48 1   
@<TRIPOS>SUBSTRUCTURE
     1 XXX         1 TEMP              0 ****  ****    0 ROOT
