@<TRIPOS>MOLECULE
XXX
   48    49     1     0     0
SMALL
No Charge or Current Charge


@<TRIPOS>ATOM
      1 O3           0.9070     1.9610     1.1550 oh         1 XXX      -0.772000
      2 C4           1.7710     0.7990     1.0840 c6         1 XXX       0.136300
      3 C5           3.2520     1.2370     0.8800 c6         1 XXX       0.188300
      4 O4           3.5970     2.1610     1.9260 oh         1 XXX      -0.639000
      5 C6           4.2020    -0.0180     0.8530 c6         1 XXX       0.157500
      6 N1           5.6350     0.3360     0.6490 n8         1 XXX      -0.965200
      7 C7           3.7650    -1.0160    -0.2540 c6         1 XXX      -0.121400
      8 C8           2.2840    -1.4380    -0.0860 c6         1 XXX       0.161500
      9 N2           1.9050    -2.3850    -1.1590 n8         1 XXX      -1.013200
     10 C9           1.3440    -0.1880    -0.0450 c6         1 XXX       0.157300
     11 O5          -0.0460    -0.5780     0.1130 os         1 XXX      -0.502000
     12 C10         -0.8880    -0.3890    -1.0460 c6         1 XXX       0.399300
     13 O6          -1.9090    -1.4100    -1.0460 os         1 XXX      -0.444000
     14 C11         -2.8390    -1.3480     0.0690 c6         1 XXX       0.174300
     15 C12         -3.8380    -2.5510    -0.0610 c3         1 XXX       0.155800
     16 N3          -3.2250    -3.9120    -0.0420 n8         1 XXX      -0.994200
     17 C13         -3.5760     0.0300     0.0700 c6         1 XXX       0.128300
     18 O7          -4.4850     0.1640     1.1790 oh         1 XXX      -0.718000
     19 C14         -2.5300     1.1810     0.1200 c6         1 XXX       0.129300
     20 O8          -3.2000     2.4600     0.1190 oh         1 XXX      -0.676000
     21 C15         -1.5340     1.0500    -1.0750 c6         1 XXX       0.117500
     22 N4          -0.5400     2.1850    -1.0970 n8         1 XXX      -1.003200
     23 HO3          0.3470     1.9640     0.3140 ho         1 XXX       0.559000
     24 H4           1.7130     0.2500     2.0360 h1         1 XXX       0.045700
     25 H5           3.3260     1.7460    -0.0930 h1         1 XXX       0.031700
     26 HO4          2.7510     2.6350     2.0980 ho         1 XXX       0.456000
     27 H6           4.1280    -0.5310     1.8260 h1         1 XXX       0.070700
     28 HN11         6.1680    -0.5220     0.4690 hn         1 XXX       0.389000
     29 HN12         5.7260     0.8670    -0.2240 hn         1 XXX       0.389000
     30 H71          4.4070    -1.9080    -0.2230 hc         1 XXX       0.049200
     31 H72          3.9080    -0.5600    -1.2440 hc         1 XXX       0.049200
     32 H8           2.1760    -1.9770     0.8680 h1         1 XXX       0.026700
     33 HN21         2.3850    -3.2780    -0.9980 hn         1 XXX       0.412000
     34 HN22         0.9140    -2.6230    -1.0250 hn         1 XXX       0.412000
     35 H9           1.4650     0.3400    -1.0030 h1         1 XXX       0.060700
     36 H10         -0.2860    -0.5220    -1.9580 h2         1 XXX       0.079700
     37 H11         -2.2820    -1.4630     1.0100 h1         1 XXX       0.060700
     38 H121        -4.4030    -2.4350    -0.9960 h1         1 XXX       0.048200
     39 H122        -4.5560    -2.4930     0.7690 h1         1 XXX       0.048200
     40 HN31        -2.7490    -4.0550     0.8560 hn         1 XXX       0.393500
     41 HN32        -3.9720    -4.6170    -0.0360 hn         1 XXX       0.393500
     42 H13         -4.1340     0.1160    -0.8750 h1         1 XXX       0.052700
     43 HO7         -4.6390     1.1380     1.2550 ho         1 XXX       0.514000
     44 H14         -1.9530     1.0690     1.0520 h1         1 XXX       0.072700
     45 HO8         -2.5230     3.1270     0.3700 ho         1 XXX       0.453000
     46 H15         -2.1120     1.1260    -2.0090 h1         1 XXX       0.053700
     47 HN41         0.0130     2.1170    -1.9640 hn         1 XXX       0.411500
     48 HN42        -1.0590     3.0590    -1.2650 hn         1 XXX       0.411500
@<TRIPOS>BOND
     1     1     2 1   
     2     1    23 1   
     3     2     3 1   
     4     2    10 1   
     5     2    24 1   
     6     3     4 1   
     7     3     5 1   
     8     3    25 1   
     9     4    26 1   
    10     5     6 1   
    11     5     7 1   
    12     5    27 1   
    13     6    28 1   
    14     6    29 1   
    15     7     8 1   
    16     7    30 1   
    17     7    31 1   
    18     8     9 1   
    19     8    10 1   
    20     8    32 1   
    21     9    33 1   
    22     9    34 1   
    23    10    11 1   
    24    10    35 1   
    25    11    12 1   
    26    12    13 1   
    27    12    21 1   
    28    12    36 1   
    29    13    14 1   
    30    14    15 1   
    31    14    17 1   
    32    14    37 1   
    33    15    16 1   
    34    15    38 1   
    35    15    39 1   
    36    16    40 1   
    37    16    41 1   
    38    17    18 1   
    39    17    19 1   
    40    17    42 1   
    41    18    43 1   
    42    19    20 1   
    43    19    21 1   
    44    19    44 1   
    45    20    45 1   
    46    21    22 1   
    47    21    46 1   
    48    22    47 1   
    49    22    48 1   
@<TRIPOS>SUBSTRUCTURE
     1 XXX         1 TEMP              0 ****  ****    0 ROOT
