@<TRIPOS>MOLECULE
XXY
   36    37     1     0     0
SMALL
No Charge or Current Charge


@<TRIPOS>ATOM
      1 C1          -0.8380     0.7080     0.3040 cc         1 XXY       0.328800
      2 N2           0.1340     1.2430    -0.4420 nd         1 XXY      -0.684000
      3 CA2          1.0610     0.2040    -0.6000 cd         1 XXY      -0.026700
      4 C2           0.6060    -0.9310     0.0540 cc         1 XXY       0.195000
      5 O2           1.1280    -2.0350     0.1410 o          1 XXY      -0.546000
      6 N3          -0.5870    -0.6050     0.6320 n          1 XXY      -0.210500
      7 CA1         -2.1000     1.4850     0.7160 c3         1 XXY       0.149200
      8 N1          -1.7990     2.6620     1.5970 n8         1 XXY      -1.013200
      9 CB1         -2.9250     1.9010    -0.5470 c3         1 XXY       0.110300
     10 CG1         -4.3040     2.5170    -0.2160 c3         1 XXY      -0.121100
     11 OG1         -2.1710     2.8400    -1.3340 oh         1 XXY      -0.627000
     12 CA3         -1.4670    -1.5220     1.4010 c3         1 XXY      -0.052400
     13 C3          -2.5430    -2.2320     0.5440 c          1 XXY       0.713000
     14 OXT         -2.5560    -3.4550     0.5210 o          1 XXY      -0.743000
     15 CB2          2.3360     0.3770    -1.4040 c3         1 XXY       0.033600
     16 CG2          3.6010     0.1210    -0.6230 cc         1 XXY      -0.156300
     17 ND1          3.7960    -0.9460     0.2220 na         1 XXY      -0.287500
     18 CE1          5.0600    -0.8570     0.7430 cc         1 XXY       0.332400
     19 NE2          5.6800     0.2130     0.2650 nd         1 XXY      -0.745000
     20 CD2          4.7790     0.8250    -0.5840 cd         1 XXY       0.143900
     21 O3          -3.3460    -1.5420    -0.0690 o          1 XXY      -0.743000
     22 HA1         -2.7460     0.8180     1.3000 h1         1 XXY       0.048700
     23 HN11        -1.1470     3.2680     1.0860 hn         1 XXY       0.387000
     24 HN12        -2.6470     3.2330     1.6670 hn         1 XXY       0.387000
     25 HB1         -3.1050     0.9800    -1.1250 h1         1 XXY       0.140700
     26 HG11        -4.2030     3.4630     0.3290 hc         1 XXY       0.019033
     27 HG12        -4.8660     2.7140    -1.1370 hc         1 XXY       0.019033
     28 HG13        -4.8950     1.8260     0.3970 hc         1 XXY       0.019033
     29 HOG1        -1.2350     2.5310    -1.2740 ho         1 XXY       0.400000
     30 HA31        -0.8450    -2.2850     1.8860 h1         1 XXY       0.018700
     31 HA32        -1.9690    -0.9630     2.1990 h1         1 XXY       0.018700
     32 HB21         2.3100    -0.3010    -2.2660 hc         1 XXY       0.020700
     33 HB22         2.3770     1.3890    -1.8260 hc         1 XXY       0.020700
     34 HND1         3.1090    -1.6650     0.4370 hn         1 XXY       0.434000
     35 HE1          5.4580    -1.5810     1.4460 h5         1 XXY       0.021100
     36 HD2          5.0290     1.7330    -1.1200 h4         1 XXY      -0.002900
@<TRIPOS>BOND
     1     1     2 2   
     2     1     6 1   
     3     1     7 1   
     4     2     3 1   
     5     3     4 2   
     6     3    15 1   
     7     4     5 1   
     8     4     6 1   
     9     6    12 1   
    10     7     8 1   
    11     7     9 1   
    12     7    22 1   
    13     8    23 1   
    14     8    24 1   
    15     9    10 1   
    16     9    11 1   
    17     9    25 1   
    18    10    26 1   
    19    10    27 1   
    20    10    28 1   
    21    11    29 1   
    22    12    13 1   
    23    12    30 1   
    24    12    31 1   
    25    13    14 1   
    26    13    21 1   
    27    15    16 1   
    28    15    32 1   
    29    15    33 1   
    30    16    17 1   
    31    16    20 2   
    32    17    18 1   
    33    17    34 1   
    34    18    19 2   
    35    18    35 1   
    36    19    20 1   
    37    20    36 1   
@<TRIPOS>SUBSTRUCTURE
     1 XXY         1 TEMP              0 ****  ****    0 ROOT
