@<TRIPOS>MOLECULE
XXY
   36    37     1     0     0
SMALL
abcg2


@<TRIPOS>ATOM
      1 C1          -0.7290     0.9960     0.3850 cc         1 XXY       0.328800
      2 N2           0.3090     1.5180    -0.2050 nd         1 XXY      -0.684000
      3 CA2          1.1910     0.4870    -0.4410 cd         1 XXY      -0.026700
      4 C2           0.6580    -0.7120     0.0200 cc         1 XXY       0.195000
      5 O2           1.0980    -1.9170     0.0580 o          1 XXY      -0.546000
      6 N3          -0.5690    -0.3490     0.5600 n          1 XXY      -0.210500
      7 CA1         -1.9670     1.7510     0.7560 c3         1 XXY       0.149200
      8 N1          -1.6060     3.1340     1.0240 n8         1 XXY      -1.013200
      9 CB1         -3.0620     1.5660    -0.3230 c3         1 XXY       0.110300
     10 CG1         -4.4090     2.1090     0.1340 c3         1 XXY      -0.121100
     11 OG1         -2.6680     2.1220    -1.5600 oh         1 XXY      -0.627000
     12 CA3         -1.4580    -1.2960     1.1690 c3         1 XXY      -0.052400
     13 C3          -2.2450    -2.1880     0.1870 c          1 XXY       0.713000
     14 OXT         -2.8390    -3.1460     0.7230 o          1 XXY      -0.743000
     15 CB2          2.4950     0.7060    -1.1540 c3         1 XXY       0.033600
     16 CG2          3.6790     0.0890    -0.4800 cc         1 XXY      -0.156300
     17 ND1          3.6180    -1.1490     0.0880 na         1 XXY      -0.287500
     18 CE1          4.8370    -1.4300     0.5850 cc         1 XXY       0.332400
     19 NE2          5.6910    -0.4570     0.3690 nd         1 XXY      -0.745000
     20 CD2          4.9750     0.5000    -0.2980 cd         1 XXY       0.143900
     21 O3          -2.2470    -1.8750    -1.0150 o          1 XXY      -0.743000
     22 HA1         -2.3800     1.3360     1.6850 h1         1 XXY       0.048700
     23 HN11        -1.0600     3.5070     0.2570 hn         1 XXY       0.387000
     24 HN12        -2.4270     3.7140     1.1350 hn         1 XXY       0.387000
     25 HB1         -3.1610     0.4940    -0.5100 h1         1 XXY       0.140700
     26 HG11        -4.3720     3.1840     0.3320 hc         1 XXY       0.019033
     27 HG12        -5.1730     1.9430    -0.6260 hc         1 XXY       0.019033
     28 HG13        -4.7360     1.6140     1.0490 hc         1 XXY       0.019033
     29 HOG1        -2.5190     3.0650    -1.4280 ho         1 XXY       0.400000
     30 HA31        -0.8860    -1.9370     1.8430 h1         1 XXY       0.018700
     31 HA32        -2.1730    -0.7610     1.7990 h1         1 XXY       0.018700
     32 HB21         2.4480     0.3340    -2.1880 hc         1 XXY       0.020700
     33 HB22         2.6690     1.7800    -1.2430 hc         1 XXY       0.020700
     34 HND1         2.7120    -1.6810     0.1450 hn         1 XXY       0.434000
     35 HE1          5.0540    -2.3540     1.0990 h5         1 XXY       0.021100
     36 HD2          5.4210     1.4330    -0.6120 h4         1 XXY      -0.002900
@<TRIPOS>BOND
     1     1     2 2   
     2     1     6 1   
     3     1     7 1   
     4     2     3 1   
     5     3     4 2   
     6     3    15 1   
     7     4     5 1   
     8     4     6 1   
     9     6    12 1   
    10     7     8 1   
    11     7     9 1   
    12     7    22 1   
    13     8    23 1   
    14     8    24 1   
    15     9    10 1   
    16     9    11 1   
    17     9    25 1   
    18    10    26 1   
    19    10    27 1   
    20    10    28 1   
    21    11    29 1   
    22    12    13 1   
    23    12    30 1   
    24    12    31 1   
    25    13    14 1   
    26    13    21 1   
    27    15    16 1   
    28    15    32 1   
    29    15    33 1   
    30    16    17 1   
    31    16    20 2   
    32    17    18 1   
    33    17    34 1   
    34    18    19 2   
    35    18    35 1   
    36    19    20 1   
    37    20    36 1   
@<TRIPOS>SUBSTRUCTURE
     1 XXY         1 TEMP              0 ****  ****    0 ROOT
