@<TRIPOS>MOLECULE
XXZ
   49    52     1     0     0
SMALL
abcg2


@<TRIPOS>ATOM
      1 F1           5.1540    -1.7870     1.6790 f          1 XXZ      -0.176000
      2 C2           4.6790    -1.4760     0.4630 ca         1 XXZ       0.246000
      3 C3           5.1110    -2.2390    -0.5990 ca         1 XXZ      -0.219000
      4 C4           4.6290    -1.9250    -1.8670 ca         1 XXZ      -0.019000
      5 C1           3.7200    -0.9040    -2.0540 ca         1 XXZ      -0.217000
      6 C6           3.2740    -0.1590    -0.9570 ca         1 XXZ       0.369000
      7 C7           3.7840    -0.4180     0.3320 ca         1 XXZ      -0.321900
      8 CG           3.3580     0.5240     1.3850 ce         1 XXZ       0.721800
      9 N20          2.3620     1.3170     1.2360 n2         1 XXZ      -0.716900
     10 N21          4.0530     0.5610     2.5560 nv         1 XXZ      -1.012200
     11 N1           2.3730     0.8500    -1.0870 nu         1 XXZ      -0.967200
     12 C5           1.5400     1.1900     0.0610 c6         1 XXZ       0.460400
     13 C10          0.8640     2.5360    -0.2120 c6         1 XXZ      -0.118900
     14 C11         -0.2210     2.4440    -1.2780 c6         1 XXZ       0.090500
     15 N12         -1.2080     1.4360    -0.9280 n          1 XXZ      -0.399800
     16 C13         -0.6210     0.1130    -0.7790 c6         1 XXZ       0.090500
     17 C14          0.4500     0.1260     0.3050 c6         1 XXZ      -0.118900
     18 C15         -2.3880     1.8150    -0.3870 c          1 XXZ       0.614700
     19 O16         -2.6780     2.9880    -0.1830 o          1 XXZ      -0.592100
     20 C18         -3.7920    -0.1970    -1.0030 ca         1 XXZ      -0.079000
     21 NH          -6.2040    -3.4160     0.3700 n8         1 XXZ      -0.997200
     22 C8          -5.3930    -1.1110     0.5600 ca         1 XXZ      -0.071300
     23 CD1         -4.9830    -0.1620     1.4920 ca         1 XXZ      -0.106000
     24 CE1         -4.0060     0.7720     1.1800 ca         1 XXZ      -0.079000
     25 CD2         -4.7850    -1.1130    -0.6940 ca         1 XXZ      -0.106000
     26 CZ          -3.3880     0.7510    -0.0650 ca         1 XXZ      -0.143600
     27 H3           5.8020    -3.0550    -0.4430 ha         1 XXZ       0.136000
     28 H4           4.9570    -2.5080    -2.7170 ha         1 XXZ       0.117000
     29 H1           3.3320    -0.6880    -3.0420 ha         1 XXZ       0.120000
     30 H211         5.0290     0.3220     2.5540 hn         1 XXZ       0.474000
     31 H212         3.8250     1.3380     3.1560 hn         1 XXZ       0.474000
     32 HN1          1.9910     0.9890    -2.0100 hn         1 XXZ       0.482000
     33 H101         1.6200     3.2680    -0.5040 hc         1 XXZ       0.070950
     34 H102         0.4170     2.8840     0.7220 hc         1 XXZ       0.070950
     35 H111         0.2000     2.1760    -2.2530 h1         1 XXZ       0.057450
     36 H112        -0.7080     3.4070    -1.4050 h1         1 XXZ       0.057450
     37 H131        -1.3820    -0.6220    -0.5320 h1         1 XXZ       0.057450
     38 H132        -0.2020    -0.1900    -1.7430 h1         1 XXZ       0.057450
     39 H141         0.9050    -0.8660     0.3770 hc         1 XXZ       0.070950
     40 H142        -0.0200     0.3300     1.2710 hc         1 XXZ       0.070950
     41 H18         -3.3370    -0.2170    -1.9860 ha         1 XXZ       0.123000
     42 HNH1        -5.4290    -3.8210     0.8800 hn         1 XXZ       0.397000
     43 HNH2        -6.9970    -4.0190     0.5450 hn         1 XXZ       0.397000
     44 HB1         -7.4160    -1.7410     0.4390 h1         1 XXZ       0.037200
     45 HB2         -6.6580    -2.0680     1.9800 h1         1 XXZ       0.037200
     46 HD1         -5.4340    -0.1490     2.4770 ha         1 XXZ       0.122500
     47 HE1         -3.7150     1.5070     1.9200 ha         1 XXZ       0.123000
     48 HD2         -5.0880    -1.8410    -1.4340 ha         1 XXZ       0.122500
     49 CB          -6.4860    -2.0920     0.8950 c3         1 XXZ       0.193100
@<TRIPOS>BOND
     1     1     2 1   
     2     2     3 ar  
     3     2     7 ar  
     4     3     4 ar  
     5     3    27 1   
     6     4     5 ar  
     7     4    28 1   
     8     5     6 ar  
     9     5    29 1   
    10     6     7 ar  
    11     6    11 1   
    12     7     8 1   
    13     8     9 2   
    14     8    10 1   
    15     9    12 1   
    16    10    30 1   
    17    10    31 1   
    18    11    12 1   
    19    11    32 1   
    20    12    13 1   
    21    12    17 1   
    22    13    14 1   
    23    13    33 1   
    24    13    34 1   
    25    14    15 1   
    26    14    35 1   
    27    14    36 1   
    28    15    16 1   
    29    15    18 1   
    30    16    17 1   
    31    16    37 1   
    32    16    38 1   
    33    17    39 1   
    34    17    40 1   
    35    18    19 2   
    36    18    26 1   
    37    20    25 ar  
    38    20    26 ar  
    39    20    41 1   
    40    21    42 1   
    41    21    43 1   
    42    21    49 1   
    43    22    23 ar  
    44    22    25 ar  
    45    22    49 1   
    46    23    24 ar  
    47    23    46 1   
    48    24    26 ar  
    49    24    47 1   
    50    25    48 1   
    51    44    49 1   
    52    45    49 1   
@<TRIPOS>SUBSTRUCTURE
     1 XXZ         1 TEMP              0 ****  ****    0 ROOT
