@<TRIPOS>MOLECULE
XXZ
   49    52     1     0     0
SMALL
No Charge or Current Charge


@<TRIPOS>ATOM
      1 F1           5.7700    -1.5800     1.3650 f          1 XXZ      -0.176000
      2 C2           5.0760    -1.3280     0.2340 ca         1 XXZ       0.246000
      3 C3           5.4170    -2.0540    -0.9190 ca         1 XXZ      -0.219000
      4 C4           4.7340    -1.8350    -2.1240 ca         1 XXZ      -0.019000
      5 C1           3.7050    -0.8830    -2.1650 ca         1 XXZ      -0.217000
      6 C6           3.3720    -0.1650    -1.0110 ca         1 XXZ       0.369000
      7 C7           4.0410    -0.3680     0.1920 ca         1 XXZ      -0.321900
      8 CG           3.5840     0.4690     1.3230 ce         1 XXZ       0.721800
      9 N20          2.6470     1.3280     1.2070 n2         1 XXZ      -0.716900
     10 N21          4.2860     0.4440     2.4760 nv         1 XXZ      -1.012200
     11 N1           2.3550     0.7640    -1.0370 nu         1 XXZ      -0.967200
     12 C5           1.6520     1.1810     0.1550 c6         1 XXZ       0.460400
     13 C10          0.9630     2.5420    -0.1080 c6         1 XXZ      -0.118900
     14 C11         -0.2200     2.4260    -1.0970 c6         1 XXZ       0.090500
     15 N12         -1.2050     1.3980    -0.6690 n          1 XXZ      -0.399800
     16 C13         -0.5880     0.0590    -0.4620 c6         1 XXZ       0.090500
     17 C14          0.5870     0.1220     0.5420 c6         1 XXZ      -0.118900
     18 C15         -2.4360     1.7630    -0.0700 c          1 XXZ       0.614700
     19 O16         -2.6440     2.9200     0.2770 o          1 XXZ      -0.592100
     20 C18         -3.6840    -0.3060    -0.9190 ca         1 XXZ      -0.079000
     21 NH          -6.3660    -3.3830     1.0790 n8         1 XXZ      -0.997200
     22 C8          -5.6520    -1.1560     0.2500 ca         1 XXZ      -0.071300
     23 CD1         -5.5240    -0.1170     1.1920 ca         1 XXZ      -0.106000
     24 CE1         -4.4800     0.8190     1.0820 ca         1 XXZ      -0.079000
     25 CD2         -4.7280    -1.2400    -0.8080 ca         1 XXZ      -0.106000
     26 CZ          -3.5350     0.7250     0.0380 ca         1 XXZ      -0.143600
     27 H3           6.2150    -2.7900    -0.8740 ha         1 XXZ       0.136000
     28 H4           4.9980    -2.3980    -3.0180 ha         1 XXZ       0.117000
     29 H1           3.1680    -0.7080    -3.0920 ha         1 XXZ       0.120000
     30 H211         5.2090     0.0360     2.4100 hn         1 XXZ       0.474000
     31 H212         4.1940     1.2790     3.0400 hn         1 XXZ       0.474000
     32 HN1          1.8780     0.8700    -1.9270 hn         1 XXZ       0.482000
     33 H101         1.6930     3.2720    -0.4820 hc         1 XXZ       0.070950
     34 H102         0.5860     2.9440     0.8410 hc         1 XXZ       0.070950
     35 H111         0.1560     2.1580    -2.0950 h1         1 XXZ       0.057450
     36 H112        -0.7070     3.4060    -1.2020 h1         1 XXZ       0.057450
     37 H131        -1.3210    -0.6610    -0.0760 h1         1 XXZ       0.057450
     38 H132        -0.2330    -0.3260    -1.4290 h1         1 XXZ       0.057450
     39 H141         1.0460    -0.8710     0.6350 hc         1 XXZ       0.070950
     40 H142         0.1850     0.3660     1.5340 hc         1 XXZ       0.070950
     41 H18         -3.0020    -0.3780    -1.7640 ha         1 XXZ       0.123000
     42 HNH1        -6.0960    -3.1240     2.0350 hn         1 XXZ       0.397000
     43 HNH2        -7.1830    -3.9910     1.2130 hn         1 XXZ       0.397000
     44 HB1         -7.1370    -2.4450    -0.6410 h1         1 XXZ       0.037200
     45 HB2         -7.6340    -1.7120     0.9010 h1         1 XXZ       0.037200
     46 HD1         -6.2360    -0.0320     2.0100 ha         1 XXZ       0.122500
     47 HE1         -4.4010     1.6150     1.8190 ha         1 XXZ       0.123000
     48 HD2         -4.8240    -2.0290    -1.5510 ha         1 XXZ       0.122500
     49 CB          -6.7890    -2.1650     0.3630 c3         1 XXZ       0.193100
@<TRIPOS>BOND
     1     1     2 1   
     2     2     3 ar  
     3     2     7 ar  
     4     3     4 ar  
     5     3    27 1   
     6     4     5 ar  
     7     4    28 1   
     8     5     6 ar  
     9     5    29 1   
    10     6     7 ar  
    11     6    11 1   
    12     7     8 1   
    13     8     9 2   
    14     8    10 1   
    15     9    12 1   
    16    10    30 1   
    17    10    31 1   
    18    11    12 1   
    19    11    32 1   
    20    12    13 1   
    21    12    17 1   
    22    13    14 1   
    23    13    33 1   
    24    13    34 1   
    25    14    15 1   
    26    14    35 1   
    27    14    36 1   
    28    15    16 1   
    29    15    18 1   
    30    16    17 1   
    31    16    37 1   
    32    16    38 1   
    33    17    39 1   
    34    17    40 1   
    35    18    19 2   
    36    18    26 1   
    37    20    25 ar  
    38    20    26 ar  
    39    20    41 1   
    40    21    42 1   
    41    21    43 1   
    42    21    49 1   
    43    22    23 ar  
    44    22    25 ar  
    45    22    49 1   
    46    23    24 ar  
    47    23    46 1   
    48    24    26 ar  
    49    24    47 1   
    50    25    48 1   
    51    44    49 1   
    52    45    49 1   
@<TRIPOS>SUBSTRUCTURE
     1 XXZ         1 TEMP              0 ****  ****    0 ROOT
