@<TRIPOS>MOLECULE
XY0
   35    38     1     0     0
SMALL
abcg2


@<TRIPOS>ATOM
      1 O2           9.6040    -0.5200    10.0230 o          1 XY0      -0.720500
      2 C18          9.9970     0.4260     9.3000 c          1 XY0       0.730000
      3 O3           9.5460     1.5950     9.2720 o          1 XY0      -0.720500
      4 C17         11.1700     0.1480     8.3140 c3         1 XY0      -0.258700
      5 C4          11.6400    -1.2660     8.3320 cc         1 XY0       0.369300
      6 C3          12.5370    -1.7450     9.3620 ca         1 XY0       0.302700
      7 C2          12.8960    -3.0960     9.3790 ca         1 XY0       0.235500
      8 N5          13.7130    -3.6040    10.3150 nb         1 XY0      -0.586000
      9 C6          14.1640    -2.7610    11.2220 ca         1 XY0       0.265900
     10 C7          13.8160    -1.3970    11.2040 ca         1 XY0       0.305900
     11 N8          13.0150    -0.8900    10.2890 nb         1 XY0      -0.582000
     12 C1          12.3580    -4.0050     8.3560 c          1 XY0       0.451500
     13 O1          12.5780    -5.2100     8.2970 o          1 XY0      -0.531000
     14 N2          11.1890    -2.0650     7.4200 nd         1 XY0      -0.466300
     15 N1          11.5430    -3.3790     7.4340 n          1 XY0      -0.171800
     16 C9          10.9170    -4.1910     6.4010 c3         1 XY0       0.100700
     17 C10          9.7350    -4.9600     6.9180 cc         1 XY0       0.377200
     18 N3           9.2630    -6.0140     6.3410 nd         1 XY0      -0.553100
     19 S1           8.8800    -4.4210     8.3550 ss         1 XY0       0.156800
     20 C11          7.7830    -5.7520     8.1530 ca         1 XY0      -0.208000
     21 C12          8.1500    -6.4940     7.0100 ca         1 XY0       0.102400
     22 C16          7.4120    -7.6200     6.6420 ca         1 XY0      -0.055000
     23 C13          6.6940    -6.1230     8.9380 ca         1 XY0      -0.055000
     24 C14          5.9680    -7.2440     8.5710 ca         1 XY0      -0.111000
     25 C15          6.3340    -7.9710     7.4320 ca         1 XY0       0.115000
     26 CL19         5.3880    -9.3810     7.0000 cl         1 XY0      -0.233000
     27 H172        11.9850     0.8220     8.5810 hc         1 XY0       0.057200
     28 H171        10.8360     0.4060     7.3090 hc         1 XY0       0.057200
     29 H6          14.8220    -3.1480    11.9910 h4         1 XY0       0.022100
     30 H7          14.2100    -0.7240    11.9580 h4         1 XY0       0.026100
     31 H92         11.6420    -4.8930     5.9960 h1         1 XY0       0.090200
     32 H91         10.5990    -3.5100     5.6130 h1         1 XY0       0.090200
     33 H16          7.6840    -8.1940     5.7670 ha         1 XY0       0.139000
     34 H13          6.4170    -5.5570     9.8170 ha         1 XY0       0.132000
     35 H14          5.1180    -7.5600     9.1590 ha         1 XY0       0.123000
@<TRIPOS>BOND
     1     1     2 1   
     2     2     3 1   
     3     2     4 1   
     4     4     5 1   
     5     4    27 1   
     6     4    28 1   
     7     5     6 1   
     8     5    14 2   
     9     6     7 ar  
    10     6    11 ar  
    11     7     8 ar  
    12     7    12 1   
    13     8     9 ar  
    14     9    10 ar  
    15     9    29 1   
    16    10    11 ar  
    17    10    30 1   
    18    12    13 2   
    19    12    15 1   
    20    14    15 1   
    21    15    16 1   
    22    16    17 1   
    23    16    31 1   
    24    16    32 1   
    25    17    18 2   
    26    17    19 1   
    27    18    21 1   
    28    19    20 1   
    29    20    21 ar  
    30    20    23 ar  
    31    21    22 ar  
    32    22    25 ar  
    33    22    33 1   
    34    23    24 ar  
    35    23    34 1   
    36    24    25 ar  
    37    24    35 1   
    38    25    26 1   
@<TRIPOS>SUBSTRUCTURE
     1 XY0         1 TEMP              0 ****  ****    0 ROOT
