@<TRIPOS>MOLECULE
XY0
   35    38     1     0     0
SMALL
No Charge or Current Charge


@<TRIPOS>ATOM
      1 O2          10.2880     0.6220    10.6060 o          1 XY0      -0.720500
      2 C18         10.0590     0.4370     9.4220 c          1 XY0       0.730000
      3 O3           8.9380     0.2680     8.9700 o          1 XY0      -0.720500
      4 C17         11.2400     0.2610     8.4820 c3         1 XY0      -0.258700
      5 C4          11.6480    -1.1930     8.4520 cc         1 XY0       0.369300
      6 C3          12.6160    -1.7610     9.4310 ca         1 XY0       0.302700
      7 C2          12.9390    -3.1420     9.3780 ca         1 XY0       0.235500
      8 N5          13.8230    -3.7240    10.2530 nb         1 XY0      -0.586000
      9 C6          14.3800    -2.9000    11.1760 ca         1 XY0       0.265900
     10 C7          14.0710    -1.5210    11.2310 ca         1 XY0       0.305900
     11 N8          13.1970    -0.9430    10.3670 nb         1 XY0      -0.582000
     12 C1          12.2840    -3.9780     8.3100 c          1 XY0       0.451500
     13 O1          12.4860    -5.1840     8.1840 o          1 XY0      -0.531000
     14 N2          11.0730    -1.9160     7.4790 nd         1 XY0      -0.466300
     15 N1          11.4090    -3.2720     7.4460 n          1 XY0      -0.171800
     16 C9          10.7260    -4.0190     6.3550 c3         1 XY0       0.100700
     17 C10          9.5510    -4.8310     6.8400 cc         1 XY0       0.377200
     18 N3           9.3640    -6.1110     6.4730 nd         1 XY0      -0.553100
     19 S1           8.3400    -4.0710     7.9020 ss         1 XY0       0.156800
     20 C11          7.5230    -5.6260     7.8590 ca         1 XY0      -0.208000
     21 C12          8.1910    -6.5470     7.0770 ca         1 XY0       0.102400
     22 C16          7.6750    -7.8440     6.9290 ca         1 XY0      -0.055000
     23 C13          6.3270    -5.9410     8.5230 ca         1 XY0      -0.055000
     24 C14          5.8030    -7.2390     8.3810 ca         1 XY0      -0.111000
     25 C15          6.4770    -8.1870     7.5850 ca         1 XY0       0.115000
     26 Cl19         5.8170    -9.8090     7.4100 cl         1 XY0      -0.233000
     27 H172        12.0960     0.8430     8.8390 hc         1 XY0       0.057200
     28 H171        10.9440     0.5400     7.4640 hc         1 XY0       0.057200
     29 H6          15.0830    -3.3470    11.8770 h4         1 XY0       0.022100
     30 H7          14.5300    -0.8730    11.9760 h4         1 XY0       0.026100
     31 H92         11.4480    -4.6850     5.8670 h1         1 XY0       0.090200
     32 H91         10.3700    -3.3160     5.5930 h1         1 XY0       0.090200
     33 H16          8.1950    -8.5750     6.3160 ha         1 XY0       0.139000
     34 H13          5.8140    -5.2000     9.1350 ha         1 XY0       0.132000
     35 H14          4.8790    -7.5120     8.8840 ha         1 XY0       0.123000
@<TRIPOS>BOND
     1     1     2 1   
     2     2     3 1   
     3     2     4 1   
     4     4     5 1   
     5     4    27 1   
     6     4    28 1   
     7     5     6 1   
     8     5    14 2   
     9     6     7 ar  
    10     6    11 ar  
    11     7     8 ar  
    12     7    12 1   
    13     8     9 ar  
    14     9    10 ar  
    15     9    29 1   
    16    10    11 ar  
    17    10    30 1   
    18    12    13 2   
    19    12    15 1   
    20    14    15 1   
    21    15    16 1   
    22    16    17 1   
    23    16    31 1   
    24    16    32 1   
    25    17    18 2   
    26    17    19 1   
    27    18    21 1   
    28    19    20 1   
    29    20    21 ar  
    30    20    23 ar  
    31    21    22 ar  
    32    22    25 ar  
    33    22    33 1   
    34    23    24 ar  
    35    23    34 1   
    36    24    25 ar  
    37    24    35 1   
    38    25    26 1   
@<TRIPOS>SUBSTRUCTURE
     1 XY0         1 TEMP              0 ****  ****    0 ROOT
