@<TRIPOS>MOLECULE
XY1
   35    36     1     0     0
SMALL
No Charge or Current Charge


@<TRIPOS>ATOM
      1 C29         -5.9150    -0.4310    -0.0560 c          1 XY1       0.708600
      2 O30         -6.3420    -1.4990    -0.4730 o          1 XY1      -0.711500
      3 C26         -4.4090    -0.2520     0.0860 ca         1 XY1      -0.092600
      4 C25         -3.5190    -1.2980    -0.2560 ca         1 XY1      -0.106000
      5 C24         -2.1290    -1.1320    -0.1230 ca         1 XY1      -0.091000
      6 C27         -3.8640     0.9630     0.5650 ca         1 XY1      -0.106000
      7 C28         -2.4730     1.1270     0.6960 ca         1 XY1      -0.091000
      8 C23         -1.5990     0.0820     0.3490 ca         1 XY1       0.022400
      9 N21         -0.2080     0.2440     0.4890 ne         1 XY1      -0.168400
     10 N20          0.4130     0.6050    -0.5540 nf         1 XY1      -0.275400
     11 C18          1.8170     0.7650    -0.4120 ca         1 XY1       0.012400
     12 C17          2.3730     2.0280    -0.1100 ca         1 XY1       0.178100
     13 O22          1.5630     3.1140     0.0580 oh         1 XY1      -0.535100
     14 C16          3.7620     2.1740     0.0200 ca         1 XY1      -0.167000
     15 C15          4.6070     1.0640    -0.1520 ca         1 XY1      -0.072000
     16 C19          2.6680    -0.3430    -0.5870 ca         1 XY1      -0.050000
     17 C9           4.0650    -0.1990    -0.4580 ca         1 XY1      -0.135300
     18 C14          4.9790    -1.4050    -0.6420 c3         1 XY1      -0.021100
     19 C12          5.1550    -2.2040     0.6670 c3         1 XY1       0.146800
     20 N3           6.0410    -3.3730     0.4910 n8         1 XY1      -0.998200
     21 OXT         -6.6480     0.5000     0.2510 o          1 XY1      -0.711500
     22 H25         -3.9020    -2.2470    -0.6250 ha         1 XY1       0.134000
     23 H27         -4.5190     1.7880     0.8390 ha         1 XY1       0.134000
     24 H24         -1.4610    -1.9470    -0.3900 ha         1 XY1       0.102500
     25 H28         -2.0750     2.0670     1.0690 ha         1 XY1       0.102500
     26 H19          2.2410    -1.3150    -0.8220 ha         1 XY1       0.135000
     27 H22          0.6410     2.7910    -0.0520 ho         1 XY1       0.498000
     28 H16          4.1850     3.1470     0.2550 ha         1 XY1       0.121000
     29 H15          5.6830     1.1870    -0.0470 ha         1 XY1       0.101000
     30 H141         4.5740    -2.0680    -1.4160 hc         1 XY1       0.048700
     31 H142         5.9640    -1.0790    -1.0020 hc         1 XY1       0.048700
     32 H121         5.5830    -1.5500     1.4410 h1         1 XY1       0.031700
     33 H122         4.1740    -2.5550     1.0160 h1         1 XY1       0.031700
     34 H31N         6.9850    -3.0450     0.2540 hn         1 XY1       0.387000
     35 H32N         6.1690    -3.8360     1.4000 hn         1 XY1       0.387000
@<TRIPOS>BOND
     1     1     2 1   
     2     1     3 1   
     3     1    21 1   
     4     3     4 ar  
     5     3     6 ar  
     6     4     5 ar  
     7     4    22 1   
     8     5     8 ar  
     9     5    24 1   
    10     6     7 ar  
    11     6    23 1   
    12     7     8 ar  
    13     7    25 1   
    14     8     9 1   
    15     9    10 2   
    16    10    11 1   
    17    11    12 ar  
    18    11    16 ar  
    19    12    13 1   
    20    12    14 ar  
    21    13    27 1   
    22    14    15 ar  
    23    14    28 1   
    24    15    17 ar  
    25    15    29 1   
    26    16    17 ar  
    27    16    26 1   
    28    17    18 1   
    29    18    19 1   
    30    18    30 1   
    31    18    31 1   
    32    19    20 1   
    33    19    32 1   
    34    19    33 1   
    35    20    34 1   
    36    20    35 1   
@<TRIPOS>SUBSTRUCTURE
     1 XY1         1 TEMP              0 ****  ****    0 ROOT
