@<TRIPOS>MOLECULE
XY1
   35    36     1     0     0
SMALL
abcg2


@<TRIPOS>ATOM
      1 C29         -5.9100    -0.3190     0.1340 c          1 XY1       0.708600
      2 O30         -6.4340    -1.4320    -0.0620 o          1 XY1      -0.711500
      3 C26         -4.3890    -0.2610     0.0540 ca         1 XY1      -0.092600
      4 C25         -3.6470    -1.3940    -0.2630 ca         1 XY1      -0.106000
      5 C24         -2.2640    -1.3380    -0.3340 ca         1 XY1      -0.091000
      6 C27         -3.7070     0.9340     0.3000 ca         1 XY1      -0.106000
      7 C28         -2.3290     1.0020     0.2340 ca         1 XY1      -0.091000
      8 C23         -1.5930    -0.1420    -0.0890 ca         1 XY1       0.022400
      9 N21         -0.1950    -0.2040    -0.1850 ne         1 XY1      -0.168400
     10 N20          0.4050     0.8680    -0.0130 nf         1 XY1      -0.275400
     11 C18          1.7960     0.8290    -0.0900 ca         1 XY1       0.012400
     12 C17          2.4150     2.0730     0.1030 ca         1 XY1       0.178100
     13 O22          1.7000     3.1820     0.3290 oh         1 XY1      -0.535100
     14 C16          3.8040     2.1560     0.0530 ca         1 XY1      -0.167000
     15 C15          4.5480     1.0170    -0.1840 ca         1 XY1      -0.072000
     16 C19          2.5710    -0.3090    -0.3300 ca         1 XY1      -0.050000
     17 C9           3.9500    -0.2350    -0.3810 ca         1 XY1      -0.135300
     18 C14          4.7930    -1.4610    -0.5930 c3         1 XY1      -0.021100
     19 C12          5.2760    -2.0540     0.7290 c3         1 XY1       0.146800
     20 N3           6.0860    -3.2380     0.4930 n8         1 XY1      -0.998200
     21 OXT         -6.4940     0.7510     0.3880 o          1 XY1      -0.711500
     22 H25         -4.1560    -2.3280    -0.4590 ha         1 XY1       0.134000
     23 H27         -4.2710     1.8220     0.5510 ha         1 XY1       0.134000
     24 H24         -1.6870    -2.2200    -0.5820 ha         1 XY1       0.102500
     25 H28         -1.8230     1.9370     0.4350 ha         1 XY1       0.102500
     26 H19          2.0690    -1.2580    -0.4810 ha         1 XY1       0.135000
     27 H22          0.7600     2.9410     0.3250 ho         1 XY1       0.498000
     28 H16          4.2910     3.1120     0.1980 ha         1 XY1       0.121000
     29 H15          5.6280     1.0990    -0.2250 ha         1 XY1       0.101000
     30 H141         4.2270    -2.2200    -1.1370 hc         1 XY1       0.048700
     31 H142         5.6600    -1.2080    -1.2100 hc         1 XY1       0.048700
     32 H121         5.7930    -1.2700     1.3020 h1         1 XY1       0.031700
     33 H122         4.4050    -2.3440     1.3230 h1         1 XY1       0.031700
     34 H31N         6.9570    -2.9660     0.0540 hn         1 XY1       0.387000
     35 H32N         6.3440    -3.6520     1.3790 hn         1 XY1       0.387000
@<TRIPOS>BOND
     1     1     2 1   
     2     1     3 1   
     3     1    21 1   
     4     3     4 ar  
     5     3     6 ar  
     6     4     5 ar  
     7     4    22 1   
     8     5     8 ar  
     9     5    24 1   
    10     6     7 ar  
    11     6    23 1   
    12     7     8 ar  
    13     7    25 1   
    14     8     9 1   
    15     9    10 2   
    16    10    11 1   
    17    11    12 ar  
    18    11    16 ar  
    19    12    13 1   
    20    12    14 ar  
    21    13    27 1   
    22    14    15 ar  
    23    14    28 1   
    24    15    17 ar  
    25    15    29 1   
    26    16    17 ar  
    27    16    26 1   
    28    17    18 1   
    29    18    19 1   
    30    18    30 1   
    31    18    31 1   
    32    19    20 1   
    33    19    32 1   
    34    19    33 1   
    35    20    34 1   
    36    20    35 1   
@<TRIPOS>SUBSTRUCTURE
     1 XY1         1 TEMP              0 ****  ****    0 ROOT
