@<TRIPOS>MOLECULE
XY3
   72    75     1     0     0
SMALL
bcc


@<TRIPOS>ATOM
      1 N1           8.8970    -2.8650     0.1860 nc         1 XY3      -0.674000
      2 N3          -6.4140    -0.4180     0.3910 n3         1 XY3      -0.720600
      3 C4           5.4860     0.5080     0.1230 cg         1 XY3      -0.087000
      4 C5           4.3690     1.3840     0.1700 ca         1 XY3       0.016000
      5 C6           4.5290     2.7420    -0.1610 ca         1 XY3      -0.027300
      6 C7           3.4110     3.5630    -0.0980 ca         1 XY3      -0.138000
      7 C8           2.1670     3.0700     0.2630 ca         1 XY3      -0.092000
      8 C10          3.1220     0.8900     0.5490 ca         1 XY3      -0.047000
      9 C13         -1.7330     1.4480     0.7400 ca         1 XY3       0.068600
     10 C15         -3.5590     0.4620     1.9340 ca         1 XY3      -0.113000
     11 C17         -4.0200     1.7700     0.0020 ca         1 XY3      -0.142300
     12 C21         -5.8520    -1.7130     0.7070 c6         1 XY3       0.168800
     13 C22         -6.3010    -2.7530    -0.3030 c6         1 XY3       0.164800
     14 C24         -7.8590    -0.4970     0.3490 c6         1 XY3       0.168800
     15 C26          9.1780     0.6200    -0.7620 c3         1 XY3       0.030600
     16 C81         11.0280    -1.8650    -0.5590 c          1 XY3       0.611600
     17 O2          11.6310    -0.8860    -0.9760 o          1 XY3      -0.618100
     18 N82          8.8060    -0.7180    -0.3370 na         1 XY3      -0.122900
     19 C84          9.5820    -1.8200    -0.2360 cd         1 XY3       0.343000
     20 C1           7.6360    -2.4380     0.3660 cc         1 XY3       0.342200
     21 C2           7.5460    -1.0970     0.0480 cd         1 XY3      -0.107600
     22 C3           6.4420    -0.2290     0.0830 ch         1 XY3      -0.082000
     23 C9           2.0120     1.7230     0.5830 ca         1 XY3      -0.162600
     24 C11          5.8650     3.2780    -0.5660 c3         1 XY3      -0.054800
     25 C12          0.7090     1.1330     1.0090 c          1 XY3       0.690700
     26 O1           0.6630     0.1590     1.7390 o          1 XY3      -0.573100
     27 N2          -0.3900     1.7540     0.5090 ns         1 XY3      -0.470100
     28 C14         -2.1960     0.6780     1.8010 ca         1 XY3      -0.119000
     29 C16         -4.5020     0.9780     1.0540 ca         1 XY3      -0.050300
     30 C18         -2.6620     1.9950    -0.1460 ca         1 XY3      -0.147000
     31 C19         -4.9570     2.4530    -0.9560 c3         1 XY3       0.719200
     32 F1          -5.7250     3.3580    -0.3240 f          1 XY3      -0.233633
     33 F2          -4.3060     3.1200    -1.9170 f          1 XY3      -0.233633
     34 F3          -5.7850     1.6100    -1.5760 f          1 XY3      -0.233633
     35 C23         -8.3010    -1.5320    -0.6670 c6         1 XY3       0.164800
     36 N4          -7.7470    -2.8350    -0.3560 n3         1 XY3      -0.704600
     37 N5          11.5830    -3.0630    -0.3500 nt         1 XY3      -0.649000
     38 C27         -7.8580    -5.2600    -0.9390 c3         1 XY3       0.141400
     39 O3          -8.3510    -5.5780     0.3430 oh         1 XY3      -0.578800
     40 H7           3.5160     4.6150    -0.3310 ha         1 XY3       0.139000
     41 H8           1.3330     3.7590     0.3170 ha         1 XY3       0.135000
     42 H10          3.0230    -0.1570     0.8050 ha         1 XY3       0.163000
     43 H15         -3.9030    -0.1350     2.7690 ha         1 XY3       0.139000
     44 H20         -6.5890     1.5100     1.1150 h1         1 XY3       0.044700
     45 H20A        -6.0880     0.3670     2.3350 h1         1 XY3       0.044700
     46 H21         -4.7620    -1.6600     0.6820 h1         1 XY3       0.039200
     47 H21A        -6.1370    -2.0450     1.7220 h1         1 XY3       0.039200
     48 H22         -5.8720    -2.5070    -1.2900 h1         1 XY3       0.037950
     49 H22A        -5.8850    -3.7170    -0.0040 h1         1 XY3       0.037950
     50 H24         -8.2890    -0.7500     1.3340 h1         1 XY3       0.039200
     51 H24A        -8.2620     0.4760     0.0600 h1         1 XY3       0.039200
     52 H26          9.5270     0.6100    -1.7900 h1         1 XY3       0.066367
     53 H26A         8.3010     1.2560    -0.6940 h1         1 XY3       0.066367
     54 H26B         9.9550     1.0230    -0.1200 h1         1 XY3       0.066367
     55 H1           6.8420    -3.0810     0.7110 h4         1 XY3       0.049100
     56 H11          6.2400     2.7650    -1.4540 hc         1 XY3       0.050700
     57 H11A         5.8130     4.3420    -0.7870 hc         1 XY3       0.050700
     58 H11B         6.6050     3.1310     0.2240 hc         1 XY3       0.050700
     59 HN2         -0.2350     2.4520    -0.2020 hn         1 XY3       0.323500
     60 H14         -1.5230     0.2490     2.5250 ha         1 XY3       0.169000
     61 H18         -2.2940     2.6060    -0.9590 ha         1 XY3       0.144000
     62 H23         -9.3920    -1.5950    -0.6580 h1         1 XY3       0.037950
     63 H23A        -8.0040    -1.1900    -1.6740 h1         1 XY3       0.037950
     64 H25         -9.3190    -3.7560    -1.3290 h1         1 XY3       0.036200
     65 H25A        -7.8680    -3.6460    -2.3170 h1         1 XY3       0.036200
     66 HN5         11.0380    -3.8380    -0.0110 hn         1 XY3       0.331500
     67 HN5A        12.5600    -3.2100    -0.5410 hn         1 XY3       0.331500
     68 H27         -8.2930    -5.9040    -1.7140 h1         1 XY3       0.014700
     69 H27A        -6.7720    -5.4030    -0.9990 h1         1 XY3       0.014700
     70 HO3         -8.1570    -6.5050     0.5110 ho         1 XY3       0.396000
     71 C20         -5.9560     0.6350     1.2740 c3         1 XY3       0.214100
     72 C25         -8.2280    -3.8340    -1.2900 c3         1 XY3       0.170800
@<TRIPOS>BOND
     1     1    19 2   
     2     1    20 1   
     3     2    12 1   
     4     2    14 1   
     5     2    71 1   
     6     3     4 1   
     7     3    22 3   
     8     4     5 ar  
     9     4     8 ar  
    10     5     6 ar  
    11     5    24 1   
    12     6     7 ar  
    13     6    40 1   
    14     7    23 ar  
    15     7    41 1   
    16     8    23 ar  
    17     8    42 1   
    18     9    27 1   
    19     9    28 ar  
    20     9    30 ar  
    21    10    28 ar  
    22    10    29 ar  
    23    10    43 1   
    24    11    29 ar  
    25    11    30 ar  
    26    11    31 1   
    27    12    13 1   
    28    12    46 1   
    29    12    47 1   
    30    13    36 1   
    31    13    48 1   
    32    13    49 1   
    33    14    35 1   
    34    14    50 1   
    35    14    51 1   
    36    15    18 1   
    37    15    52 1   
    38    15    53 1   
    39    15    54 1   
    40    16    17 2   
    41    16    19 1   
    42    16    37 1   
    43    18    19 1   
    44    18    21 1   
    45    20    21 2   
    46    20    55 1   
    47    21    22 1   
    48    23    25 1   
    49    24    56 1   
    50    24    57 1   
    51    24    58 1   
    52    25    26 2   
    53    25    27 1   
    54    27    59 1   
    55    28    60 1   
    56    29    71 1   
    57    30    61 1   
    58    31    32 1   
    59    31    33 1   
    60    31    34 1   
    61    35    36 1   
    62    35    62 1   
    63    35    63 1   
    64    36    72 1   
    65    37    66 1   
    66    37    67 1   
    67    38    39 1   
    68    38    68 1   
    69    38    69 1   
    70    38    72 1   
    71    39    70 1   
    72    44    71 1   
    73    45    71 1   
    74    64    72 1   
    75    65    72 1   
@<TRIPOS>SUBSTRUCTURE
     1 XY3         1 TEMP              0 ****  ****    0 ROOT
