@<TRIPOS>MOLECULE
XY3
   72    75     1     0     0
SMALL
No Charge or Current Charge


@<TRIPOS>ATOM
      1 N1           9.7960    -2.1780     1.2100 nc         1 XY3      -0.674000
      2 N3          -6.6510    -0.3790     0.7020 n3         1 XY3      -0.720600
      3 C4           5.8230     0.3510     0.0430 cg         1 XY3      -0.087000
      4 C5           4.5870     1.0270    -0.2440 ca         1 XY3       0.016000
      5 C6           4.5570     2.1950    -1.0410 ca         1 XY3      -0.027300
      6 C7           3.3210     2.8180    -1.2920 ca         1 XY3      -0.120000
      7 C8           2.1290     2.2950    -0.7630 ca         1 XY3      -0.074000
      8 C10          3.3920     0.5050     0.2850 ca         1 XY3      -0.029000
      9 C13         -1.6560     0.9620     0.6970 ca         1 XY3      -0.024000
     10 C15         -3.4300    -0.2520     1.8400 ca         1 XY3      -0.095000
     11 C17         -4.0020     1.7010     0.4830 ca         1 XY3      -0.142300
     12 C21         -6.1030    -1.7380     0.3990 c6         1 XY3       0.168800
     13 C22         -6.9330    -2.4880    -0.6910 c6         1 XY3       0.164800
     14 C24         -8.0980    -0.4810     1.0550 c6         1 XY3       0.168800
     15 C26          9.5760     0.8620    -0.8250 c3         1 XY3       0.059900
     16 C81         11.8480    -1.1130     0.2020 c          1 XY3       0.544600
     17 O2          12.3960    -0.2440    -0.4640 o          1 XY3      -0.618100
     18 N82          9.3650    -0.3330     0.0170 na         1 XY3      -0.101500
     19 C84         10.3560    -1.2080     0.4740 cd         1 XY3       0.343000
     20 C1           8.4530    -1.9240     1.2240 cc         1 XY3       0.276900
     21 C2           8.1520    -0.8020     0.5030 cd         1 XY3      -0.093000
     22 C3           6.8810    -0.2090     0.2770 ch         1 XY3      -0.082000
     23 C9           2.1470     1.1270     0.0360 ca         1 XY3      -0.162600
     24 C11          5.8320     2.7940    -1.6340 c3         1 XY3      -0.054800
     25 C12          0.8840     0.5270     0.6280 c          1 XY3       0.623700
     26 O1           0.9300    -0.4870     1.3160 o          1 XY3      -0.573100
     27 N2          -0.2990     1.1980     0.3360 ns         1 XY3      -0.144000
     28 C14         -2.0720    -0.0920     1.5320 ca         1 XY3      -0.101000
     29 C16         -4.4070     0.6250     1.3250 ca         1 XY3      -0.050300
     30 C18         -2.6240     1.8450     0.1860 ca         1 XY3      -0.129000
     31 C19         -5.0190     2.7100    -0.0980 c3         1 XY3       0.355300
     32 F1          -5.6530     3.4030     0.8750 f          1 XY3      -0.112333
     33 F2          -4.4440     3.6360    -0.9010 f          1 XY3      -0.112333
     34 F3          -5.9700     2.1090    -0.8470 f          1 XY3      -0.112333
     35 C23         -8.9260    -1.2260    -0.0410 c6         1 XY3       0.164800
     36 N4          -8.3860    -2.5880    -0.3410 n3         1 XY3      -0.704600
     37 N5          12.6110    -2.0890     0.7600 nt         1 XY3      -0.582000
     38 C27         -8.8280    -4.7960    -1.6380 c3         1 XY3       0.164600
     39 O3          -8.9900    -5.6160    -0.4660 oh         1 XY3      -0.641000
     40 H7           3.2790     3.7170    -1.9030 ha         1 XY3       0.121000
     41 H8           1.2010     2.8160    -0.9880 ha         1 XY3       0.117000
     42 H10          3.4370    -0.3950     0.8960 ha         1 XY3       0.145000
     43 H15         -3.7300    -1.0740     2.4860 ha         1 XY3       0.121000
     44 H20         -6.3570     1.3270     1.9300 h1         1 XY3       0.044700
     45 H20A        -5.8840    -0.1850     2.6680 h1         1 XY3       0.044700
     46 H21         -5.0640    -1.6640     0.0450 h1         1 XY3       0.039200
     47 H21A        -6.0890    -2.3520     1.3120 h1         1 XY3       0.039200
     48 H22         -6.8120    -1.9570    -1.6470 h1         1 XY3       0.037950
     49 H22A        -6.4970    -3.4880    -0.8220 h1         1 XY3       0.037950
     50 H24         -8.2180    -1.0180     2.0080 h1         1 XY3       0.039200
     51 H24A        -8.5270     0.5220     1.1950 h1         1 XY3       0.039200
     52 H26         10.0360     0.5650    -1.7750 h1         1 XY3       0.066367
     53 H26A         8.6240     1.3640    -1.0350 h1         1 XY3       0.066367
     54 H26B        10.2390     1.5640    -0.3050 h1         1 XY3       0.066367
     55 H1           7.7780    -2.5770     1.7620 h4         1 XY3       0.049100
     56 H11          6.3320     2.0790    -2.2970 hc         1 XY3       0.050700
     57 H11A         5.6230     3.6950    -2.2230 hc         1 XY3       0.050700
     58 H11B         6.5390     3.0760    -0.8450 hc         1 XY3       0.050700
     59 HN2         -0.1740     2.0130    -0.2470 hn         1 XY3       0.157000
     60 H14         -1.3650    -0.7980     1.9550 ha         1 XY3       0.151000
     61 H18         -2.2870     2.6590    -0.4530 ha         1 XY3       0.126000
     62 H23         -9.9700    -1.2970     0.2990 h1         1 XY3       0.037950
     63 H23A        -8.9270    -0.6110    -0.9530 h1         1 XY3       0.037950
     64 H25        -10.2590    -3.2880    -1.0600 h1         1 XY3       0.036200
     65 H25A        -9.1450    -2.7680    -2.3170 h1         1 XY3       0.036200
     66 HN5         12.1640    -2.8090     1.3110 hn         1 XY3       0.331500
     67 HN5A        13.6100    -2.0870     0.6200 hn         1 XY3       0.331500
     68 H27         -9.4740    -5.1700    -2.4420 h1         1 XY3       0.014700
     69 H27A        -7.7940    -4.8530    -2.0020 h1         1 XY3       0.014700
     70 HO3         -8.6920    -6.5200    -0.7080 ho         1 XY3       0.435000
     71 C20         -5.8700     0.3680     1.7180 c3         1 XY3       0.214100
     72 C25         -9.2030    -3.3070    -1.3620 c3         1 XY3       0.170800
@<TRIPOS>BOND
     1     1    19 2   
     2     1    20 1   
     3     2    12 1   
     4     2    14 1   
     5     2    71 1   
     6     3     4 1   
     7     3    22 3   
     8     4     5 ar  
     9     4     8 ar  
    10     5     6 ar  
    11     5    24 1   
    12     6     7 ar  
    13     6    40 1   
    14     7    23 ar  
    15     7    41 1   
    16     8    23 ar  
    17     8    42 1   
    18     9    27 1   
    19     9    28 ar  
    20     9    30 ar  
    21    10    28 ar  
    22    10    29 ar  
    23    10    43 1   
    24    11    29 ar  
    25    11    30 ar  
    26    11    31 1   
    27    12    13 1   
    28    12    46 1   
    29    12    47 1   
    30    13    36 1   
    31    13    48 1   
    32    13    49 1   
    33    14    35 1   
    34    14    50 1   
    35    14    51 1   
    36    15    18 1   
    37    15    52 1   
    38    15    53 1   
    39    15    54 1   
    40    16    17 2   
    41    16    19 1   
    42    16    37 1   
    43    18    19 1   
    44    18    21 1   
    45    20    21 2   
    46    20    55 1   
    47    21    22 1   
    48    23    25 1   
    49    24    56 1   
    50    24    57 1   
    51    24    58 1   
    52    25    26 2   
    53    25    27 1   
    54    27    59 1   
    55    28    60 1   
    56    29    71 1   
    57    30    61 1   
    58    31    32 1   
    59    31    33 1   
    60    31    34 1   
    61    35    36 1   
    62    35    62 1   
    63    35    63 1   
    64    36    72 1   
    65    37    66 1   
    66    37    67 1   
    67    38    39 1   
    68    38    68 1   
    69    38    69 1   
    70    38    72 1   
    71    39    70 1   
    72    44    71 1   
    73    45    71 1   
    74    64    72 1   
    75    65    72 1   
@<TRIPOS>SUBSTRUCTURE
     1 XY3         1 TEMP              0 ****  ****    0 ROOT
