@<TRIPOS>MOLECULE
XY4
   27    27     1     0     0
SMALL
No Charge or Current Charge


@<TRIPOS>ATOM
      1 N1           2.9110    -0.3200    17.0060 ns         1 XY4      -0.529900
      2 C4           2.0290    -1.3140    17.3790 c          1 XY4       0.662100
      3 C5          -0.3370    -2.0330    16.6840 ca         1 XY4      -0.007000
      4 C6          -1.3710    -1.6800    15.7960 ca         1 XY4      -0.145500
      5 C7          -2.5710    -2.4110    15.7620 ca         1 XY4      -0.086500
      6 C8          -2.7490    -3.5070    16.6210 ca         1 XY4      -0.137000
      7 C10         -0.5260    -3.1380    17.5450 ca         1 XY4      -0.145500
      8 C1           4.2120     0.2880    19.0510 c3         1 XY4      -0.108100
      9 C2           4.2530    -0.0910    17.5550 c3         1 XY4       0.145700
     10 C3           5.2090    -1.2660    17.2650 c3         1 XY4      -0.108100
     11 C9          -1.7260    -3.8690    17.5120 ca         1 XY4      -0.086500
     12 N2           0.8470    -1.2460    16.6590 ns         1 XY4      -0.172000
     13 O1           2.2820    -2.1420    18.2410 o          1 XY4      -0.624100
     14 H1           2.5930     0.3090    16.2810 hn         1 XY4       0.306500
     15 H2          -1.2460    -0.8330    15.1250 ha         1 XY4       0.122500
     16 H3          -3.3620    -2.1280    15.0710 ha         1 XY4       0.111500
     17 H4          -3.6770    -4.0740    16.5960 ha         1 XY4       0.114000
     18 H5           0.2420    -3.4470    18.2460 ha         1 XY4       0.122500
     19 H6           5.2110     0.5790    19.3970 hc         1 XY4       0.046200
     20 H7           3.5360     1.1360    19.2140 hc         1 XY4       0.046200
     21 H8           3.8710    -0.5510    19.6680 hc         1 XY4       0.046200
     22 H9           4.6530     0.7810    17.0200 h1         1 XY4       0.035700
     23 H10          6.2310    -1.0110    17.5710 hc         1 XY4       0.046200
     24 H11          4.9100    -2.1700    17.8070 hc         1 XY4       0.046200
     25 H12          5.2230    -1.4940    16.1930 hc         1 XY4       0.046200
     26 H13         -1.8630    -4.7190    18.1780 ha         1 XY4       0.111500
     27 H14          0.8150    -0.4930    15.9850 hn         1 XY4       0.139000
@<TRIPOS>BOND
     1     1     2 1   
     2     1     9 1   
     3     1    14 1   
     4     2    12 1   
     5     2    13 2   
     6     3     4 ar  
     7     3     7 ar  
     8     3    12 1   
     9     4     5 ar  
    10     4    15 1   
    11     5     6 ar  
    12     5    16 1   
    13     6    11 ar  
    14     6    17 1   
    15     7    11 ar  
    16     7    18 1   
    17     8     9 1   
    18     8    19 1   
    19     8    20 1   
    20     8    21 1   
    21     9    10 1   
    22     9    22 1   
    23    10    23 1   
    24    10    24 1   
    25    10    25 1   
    26    11    26 1   
    27    12    27 1   
@<TRIPOS>SUBSTRUCTURE
     1 XY4         1 TEMP              0 ****  ****    0 ROOT
