@<TRIPOS>MOLECULE
XY4
   27    27     1     0     0
SMALL
abcg2


@<TRIPOS>ATOM
      1 N1           2.9790    -0.4280    16.8260 ns         1 XY4      -0.529900
      2 C4           2.0140    -1.2820    17.2310 c          1 XY4       0.662100
      3 C5          -0.2540    -2.0420    16.5710 ca         1 XY4      -0.007000
      4 C6          -1.4390    -1.5030    16.0630 ca         1 XY4      -0.145500
      5 C7          -2.6320    -2.2010    16.1550 ca         1 XY4      -0.086500
      6 C8          -2.6730    -3.4460    16.7680 ca         1 XY4      -0.137000
      7 C10         -0.2920    -3.3000    17.1770 ca         1 XY4      -0.145500
      8 C1           4.0120     0.4400    18.9140 c3         1 XY4      -0.108100
      9 C2           4.2270    -0.1790    17.5370 c3         1 XY4       0.145700
     10 C3           5.1360    -1.4030    17.5920 c3         1 XY4      -0.108100
     11 C9          -1.4970    -3.9820    17.2760 ca         1 XY4      -0.086500
     12 N2           0.9200    -1.3080    16.3900 ns         1 XY4      -0.172000
     13 O1           2.0910    -1.9710    18.2390 o          1 XY4      -0.624100
     14 H1           2.8540     0.0750    15.9630 hn         1 XY4       0.306500
     15 H2          -1.4250    -0.5270    15.5920 ha         1 XY4       0.122500
     16 H3          -3.5350    -1.7630    15.7500 ha         1 XY4       0.111500
     17 H4          -3.6040    -3.9920    16.8450 ha         1 XY4       0.114000
     18 H5           0.6080    -3.7540    17.5590 ha         1 XY4       0.122500
     19 H6           4.9710     0.7450    19.3350 hc         1 XY4       0.046200
     20 H7           3.3800     1.3260    18.8500 hc         1 XY4       0.046200
     21 H8           3.5510    -0.2620    19.6070 hc         1 XY4       0.046200
     22 H9           4.7300     0.5700    16.9220 h1         1 XY4       0.035700
     23 H10          6.1110    -1.1210    17.9920 hc         1 XY4       0.046200
     24 H11          4.7260    -2.1830    18.2310 hc         1 XY4       0.046200
     25 H12          5.2910    -1.8190    16.5960 hc         1 XY4       0.046200
     26 H13         -1.5080    -4.9560    17.7500 ha         1 XY4       0.111500
     27 H14          0.8550    -0.5780    15.6970 hn         1 XY4       0.139000
@<TRIPOS>BOND
     1     1     2 1   
     2     1     9 1   
     3     1    14 1   
     4     2    12 1   
     5     2    13 2   
     6     3     4 ar  
     7     3     7 ar  
     8     3    12 1   
     9     4     5 ar  
    10     4    15 1   
    11     5     6 ar  
    12     5    16 1   
    13     6    11 ar  
    14     6    17 1   
    15     7    11 ar  
    16     7    18 1   
    17     8     9 1   
    18     8    19 1   
    19     8    20 1   
    20     8    21 1   
    21     9    10 1   
    22     9    22 1   
    23    10    23 1   
    24    10    24 1   
    25    10    25 1   
    26    11    26 1   
    27    12    27 1   
@<TRIPOS>SUBSTRUCTURE
     1 XY4         1 TEMP              0 ****  ****    0 ROOT
