@<TRIPOS>MOLECULE
XY5
   37    39     1     0     0
SMALL
bcc


@<TRIPOS>ATOM
      1 CA          -4.0390     1.0530    -0.8740 c3         1 XY5       0.075800
      2 C           -5.1810     1.9720    -0.5330 c          1 XY5       0.564900
      3 O           -5.8430     2.5550    -1.3520 o          1 XY5      -0.504100
      4 CB1         -0.1310    -0.8140     1.3450 ca         1 XY5       0.078400
      5 NB1          0.8330    -0.6870     2.3900 ne         1 XY5      -0.136400
      6 CB2         -1.1130     0.1510     1.2410 ca         1 XY5      -0.169000
      7 NB2         -3.1070     0.9950     0.2170 nu         1 XY5      -0.749600
      8 CB3         -2.1280     0.0240     0.2830 ca         1 XY5       0.168600
      9 CA1          2.4160    -0.1670     0.7840 ca         1 XY5       0.079400
     10 CA2          2.5510    -1.1560    -0.1920 ca         1 XY5      -0.099300
     11 CA3          3.0140    -0.7220    -1.4340 ca         1 XY5      -0.084000
     12 CA4          3.3320     0.5960    -1.7040 ca         1 XY5      -0.188000
     13 CA5          3.2080     1.5700    -0.7070 ca         1 XY5       0.157600
     14 CA6          2.7530     1.1590     0.5470 ca         1 XY5      -0.179000
     15 CA7          2.2820    -2.6220     0.0250 c3         1 XY5      -0.020100
     16 CB4         -2.1220    -1.1100    -0.5350 ca         1 XY5      -0.190000
     17 CB5         -1.1430    -2.0820    -0.3790 ca         1 XY5      -0.077000
     18 CB6         -0.1240    -1.9650     0.5550 ca         1 XY5      -0.102300
     19 CB7          0.9540    -2.9910     0.7250 c3         1 XY5      -0.030100
     20 NA1          2.0080    -0.4370     2.1290 nf         1 XY5      -0.130400
     21 NA2          3.5770     2.8770    -0.9350 nv         1 XY5      -0.824200
     22 HA2         -4.4990     0.0680    -1.0150 h1         1 XY5       0.067200
     23 HA3         -3.6000     1.3390    -1.8380 h1         1 XY5       0.067200
     24 H1          -5.3960     2.0510     0.5480 h4         1 XY5       0.001200
     25 HB22        -2.8130     1.8950     0.5630 hn         1 XY5       0.410800
     26 HA31         3.1230    -1.4520    -2.2270 ha         1 XY5       0.129000
     27 HA41         3.6840     0.8740    -2.6890 ha         1 XY5       0.133000
     28 HA61         2.6570     1.8800     1.3500 ha         1 XY5       0.143000
     29 HA72         2.2970    -3.0980    -0.9570 hc         1 XY5       0.050700
     30 HA71         3.1060    -3.0740     0.5850 hc         1 XY5       0.050700
     31 HB41        -2.8760    -1.2510    -1.2970 ha         1 XY5       0.133000
     32 HB51        -1.1710    -2.9550    -1.0200 ha         1 XY5       0.131000
     33 HB72         0.6130    -3.9480     0.3290 hc         1 XY5       0.055700
     34 HB71         1.1360    -3.1610     1.7880 hc         1 XY5       0.055700
     35 HA21         3.5580     3.1770    -1.8960 hn         1 XY5       0.395300
     36 H2           3.1730     3.5640    -0.3190 hn         1 XY5       0.395300
     37 HB21        -1.1000     1.0080     1.9050 ha         1 XY5       0.143000
@<TRIPOS>BOND
     1     1     2 1   
     2     1     7 1   
     3     1    22 1   
     4     1    23 1   
     5     2     3 2   
     6     2    24 1   
     7     4     5 1   
     8     4     6 ar  
     9     4    18 ar  
    10     5    20 2   
    11     6     8 ar  
    12     6    37 1   
    13     7     8 1   
    14     7    25 1   
    15     8    16 ar  
    16     9    10 ar  
    17     9    14 ar  
    18     9    20 1   
    19    10    11 ar  
    20    10    15 1   
    21    11    12 ar  
    22    11    26 1   
    23    12    13 ar  
    24    12    27 1   
    25    13    14 ar  
    26    13    21 1   
    27    14    28 1   
    28    15    19 1   
    29    15    29 1   
    30    15    30 1   
    31    16    17 ar  
    32    16    31 1   
    33    17    18 ar  
    34    17    32 1   
    35    18    19 1   
    36    19    33 1   
    37    19    34 1   
    38    21    35 1   
    39    21    36 1   
@<TRIPOS>SUBSTRUCTURE
     1 XY5         1 TEMP              0 ****  ****    0 ROOT
