@<TRIPOS>MOLECULE
XY5
   37    39     1     0     0
SMALL
No Charge or Current Charge


@<TRIPOS>ATOM
      1 CA          -4.0900     1.0850    -0.7650 c3         1 XY5       0.075800
      2 C           -5.0150     2.3290    -0.5940 c          1 XY5       0.564900
      3 O           -4.8730     3.1790     0.2840 o          1 XY5      -0.504100
      4 CB1         -0.0360    -0.9210     1.4620 ca         1 XY5       0.078400
      5 NB1          0.9300    -0.7920     2.4910 ne         1 XY5      -0.136400
      6 CB2         -1.0340     0.0630     1.3400 ca         1 XY5      -0.151000
      7 NB2         -2.9790     0.9780     0.2400 nu         1 XY5      -0.943200
      8 CB3         -2.0020    -0.0190     0.3300 ca         1 XY5       0.307000
      9 CA1          2.4470    -0.1240     0.8400 ca         1 XY5       0.079400
     10 CA2          2.6420    -1.1620    -0.1060 ca         1 XY5      -0.099300
     11 CA3          2.9560    -0.8260    -1.4380 ca         1 XY5      -0.066000
     12 CA4          3.0750     0.5200    -1.8220 ca         1 XY5      -0.170000
     13 CA5          2.8830     1.5420    -0.8830 ca         1 XY5       0.296000
     14 CA6          2.5710     1.2200     0.4440 ca         1 XY5      -0.161000
     15 CA7          2.5100    -2.6370     0.2900 c3         1 XY5      -0.020100
     16 CB4         -1.9730    -1.0980    -0.5690 ca         1 XY5      -0.172000
     17 CB5         -0.9830    -2.0880    -0.4580 ca         1 XY5      -0.059000
     18 CB6         -0.0080    -2.0110     0.5560 ca         1 XY5      -0.102300
     19 CB7          1.0680    -3.0990     0.6510 c3         1 XY5      -0.030100
     20 NA1          2.1160    -0.4110     2.1970 nf         1 XY5      -0.130400
     21 NA2          3.0020     2.8510    -1.2640 nv         1 XY5      -1.073000
     22 HA2         -4.7370     0.1990    -0.7150 h1         1 XY5       0.067200
     23 HA3         -3.6810     1.1320    -1.7840 h1         1 XY5       0.067200
     24 H1          -5.8390     2.4070    -1.3370 h4         1 XY5       0.001200
     25 HB22        -2.9200     1.7240     0.9400 hn         1 XY5       0.466000
     26 HA31         3.1050    -1.6080    -2.1790 ha         1 XY5       0.111000
     27 HA41         3.3180     0.7640    -2.8520 ha         1 XY5       0.115000
     28 HA61         2.4190     2.0110     1.1720 ha         1 XY5       0.125000
     29 HA72         2.8840    -3.2780    -0.5180 hc         1 XY5       0.050700
     30 HA71         3.1670    -2.8440     1.1430 hc         1 XY5       0.050700
     31 HB41        -2.7130    -1.1770    -1.3590 ha         1 XY5       0.115000
     32 HB51        -0.9730    -2.9140    -1.1650 ha         1 XY5       0.113000
     33 HB72         0.8060    -3.9460     0.0050 hc         1 XY5       0.055700
     34 HB71         1.0780    -3.5110     1.6680 hc         1 XY5       0.055700
     35 HA21         3.0900     3.0860    -2.2510 hn         1 XY5       0.450500
     36 H2           2.7260     3.5950    -0.6250 hn         1 XY5       0.450500
     37 HB21        -1.0500     0.8960     2.0360 ha         1 XY5       0.125000
@<TRIPOS>BOND
     1     1     2 1   
     2     1     7 1   
     3     1    22 1   
     4     1    23 1   
     5     2     3 2   
     6     2    24 1   
     7     4     5 1   
     8     4     6 ar  
     9     4    18 ar  
    10     5    20 2   
    11     6     8 ar  
    12     6    37 1   
    13     7     8 1   
    14     7    25 1   
    15     8    16 ar  
    16     9    10 ar  
    17     9    14 ar  
    18     9    20 1   
    19    10    11 ar  
    20    10    15 1   
    21    11    12 ar  
    22    11    26 1   
    23    12    13 ar  
    24    12    27 1   
    25    13    14 ar  
    26    13    21 1   
    27    14    28 1   
    28    15    19 1   
    29    15    29 1   
    30    15    30 1   
    31    16    17 ar  
    32    16    31 1   
    33    17    18 ar  
    34    17    32 1   
    35    18    19 1   
    36    19    33 1   
    37    19    34 1   
    38    21    35 1   
    39    21    36 1   
@<TRIPOS>SUBSTRUCTURE
     1 XY5         1 TEMP              0 ****  ****    0 ROOT
