@<TRIPOS>MOLECULE
XY6
   26    26     1     0     0
SMALL
abcg2


@<TRIPOS>ATOM
      1 C1          23.9060     7.2980   -20.1680 c6         1 XY6       0.396300
      2 C2          24.6750     7.4430   -18.8430 c6         1 XY6       0.159300
      3 C3          23.8010     8.1520   -17.7970 c6         1 XY6       0.153300
      4 C4          22.4110     7.5160   -17.6690 c6         1 XY6       0.152300
      5 C5          21.8000     7.3830   -19.0550 c6         1 XY6       0.157600
      6 O5          22.6570     6.7000   -19.9530 os         1 XY6      -0.475000
      7 O4          22.4320     6.2530   -17.0550 oh         1 XY6      -0.765000
      8 O2          25.0280     6.1160   -18.4870 os         1 XY6      -0.598700
      9 O24         26.9860     6.8580   -17.1460 o          1 XY6      -0.710533
     10 O25         25.0210     5.9110   -16.0210 o          1 XY6      -0.710533
     11 O26         26.4210     4.4690   -17.4310 o          1 XY6      -0.710533
     12 O3          23.6140     9.4820   -18.2790 os         1 XY6      -0.623700
     13 O29         23.7890    11.8710   -18.1770 o          1 XY6      -0.708533
     14 O30         25.5760    10.5110   -17.1590 o          1 XY6      -0.708533
     15 O31         23.3680    10.6190   -16.0930 o          1 XY6      -0.708533
     16 S23         25.9560     5.8220   -17.1600 s6         1 XY6       1.502300
     17 S28         24.1410    10.7410   -17.3280 s6         1 XY6       1.500300
     18 O1          23.8250     8.4960   -20.8700 oh         1 XY6      -0.714000
     19 H1          24.4440     6.5960   -20.8100 h2         1 XY6       0.084700
     20 H2          25.5780     8.0400   -19.0140 h1         1 XY6       0.079700
     21 H3          24.3020     8.1660   -16.8250 h1         1 XY6       0.090700
     22 H4          21.7890     8.2160   -17.0920 h1         1 XY6       0.042700
     23 H51         21.5210     8.3720   -19.4360 h1         1 XY6       0.031700
     24 H52         20.8800     6.7980   -19.0000 h1         1 XY6       0.031700
     25 HO4         23.2540     6.1340   -16.5530 ho         1 XY6       0.564000
     26 HO1         23.6810     9.2260   -20.2530 ho         1 XY6       0.485000
@<TRIPOS>BOND
     1     1     2 1   
     2     1     6 1   
     3     1    18 1   
     4     1    19 1   
     5     2     3 1   
     6     2     8 1   
     7     2    20 1   
     8     3     4 1   
     9     3    12 1   
    10     3    21 1   
    11     4     5 1   
    12     4     7 1   
    13     4    22 1   
    14     5     6 1   
    15     5    23 1   
    16     5    24 1   
    17     7    25 1   
    18     8    16 1   
    19     9    16 1   
    20    10    16 1   
    21    11    16 1   
    22    12    17 1   
    23    13    17 1   
    24    14    17 1   
    25    15    17 1   
    26    18    26 1   
@<TRIPOS>SUBSTRUCTURE
     1 XY6         1 TEMP              0 ****  ****    0 ROOT
