@<TRIPOS>MOLECULE
XY6
   26    26     1     0     0
SMALL
No Charge or Current Charge


@<TRIPOS>ATOM
      1 C1          23.8860     7.2420   -20.2490 c6         1 XY6       0.396300
      2 C2          24.7120     7.3210   -18.9170 c6         1 XY6       0.159300
      3 C3          23.9070     8.1670   -17.8540 c6         1 XY6       0.153300
      4 C4          22.4670     7.5590   -17.6580 c6         1 XY6       0.152300
      5 C5          21.7650     7.4630   -19.0500 c6         1 XY6       0.157600
      6 O5          22.5640     6.7080   -20.0000 os         1 XY6      -0.475000
      7 O4          22.4780     6.2730   -16.9910 oh         1 XY6      -0.765000
      8 O2          25.1070     5.9830   -18.4870 os         1 XY6      -0.598700
      9 O24         26.9080     6.8660   -17.0640 o          1 XY6      -0.710533
     10 O25         24.8900     5.8410   -16.0780 o          1 XY6      -0.710533
     11 O26         26.5410     4.4270   -17.2500 o          1 XY6      -0.710533
     12 O3          23.7810     9.5250   -18.3610 os         1 XY6      -0.623700
     13 O29         23.6560    11.9580   -18.1170 o          1 XY6      -0.708533
     14 O30         25.4890    10.6950   -17.0480 o          1 XY6      -0.708533
     15 O31         23.1880    10.4940   -16.1820 o          1 XY6      -0.708533
     16 S23         25.9450     5.7600   -17.0950 s6         1 XY6       1.502300
     17 S28         24.0520    10.7810   -17.3330 s6         1 XY6       1.500300
     18 O1          23.7190     8.5360   -20.8330 oh         1 XY6      -0.714000
     19 H1          24.4150     6.5840   -20.9570 h2         1 XY6       0.084700
     20 H2          25.6370     7.8730   -19.1410 h1         1 XY6       0.079700
     21 H3          24.4450     8.1910   -16.8950 h1         1 XY6       0.090700
     22 H4          21.8860     8.2640   -17.0460 h1         1 XY6       0.042700
     23 H51         21.5660     8.4680   -19.4470 h1         1 XY6       0.031700
     24 H52         20.7920     6.9640   -18.9370 h1         1 XY6       0.031700
     25 HO4         23.4110     6.1200   -16.6470 ho         1 XY6       0.564000
     26 HO1         23.6470     9.1260   -20.0370 ho         1 XY6       0.485000
@<TRIPOS>BOND
     1     1     2 1   
     2     1     6 1   
     3     1    18 1   
     4     1    19 1   
     5     2     3 1   
     6     2     8 1   
     7     2    20 1   
     8     3     4 1   
     9     3    12 1   
    10     3    21 1   
    11     4     5 1   
    12     4     7 1   
    13     4    22 1   
    14     5     6 1   
    15     5    23 1   
    16     5    24 1   
    17     7    25 1   
    18     8    16 1   
    19     9    16 1   
    20    10    16 1   
    21    11    16 1   
    22    12    17 1   
    23    13    17 1   
    24    14    17 1   
    25    15    17 1   
    26    18    26 1   
@<TRIPOS>SUBSTRUCTURE
     1 XY6         1 TEMP              0 ****  ****    0 ROOT
