@<TRIPOS>MOLECULE
XY7
   32    33     1     0     0
SMALL
No Charge or Current Charge


@<TRIPOS>ATOM
      1 C4         -20.3090     7.9340    11.8010 c          1 XY7       0.591200
      2 N3         -20.4120     8.0370    13.1510 ns         1 XY7      -0.468500
      3 C2         -19.4120     8.1040    14.0710 c          1 XY7       0.613000
      4 N1         -18.1000     8.0480    13.5630 n          1 XY7      -0.336000
      5 C6         -17.8550     7.9480    12.1900 cc         1 XY7       0.017600
      6 C5         -18.9250     7.8920    11.3260 cd         1 XY7      -0.391200
      7 O4         -21.2830     7.8830    11.0720 o          1 XY7      -0.524000
      8 O2         -19.6700     8.2150    15.2580 o          1 XY7      -0.560000
      9 C1         -16.9690     8.1930    14.5180 c5         1 XY7       0.320700
     10 O1         -15.9850     7.1690    14.2760 os         1 XY7      -0.450000
     11 C8         -16.2690     9.5760    14.2720 c5         1 XY7       0.119300
     12 F2         -16.2370    10.3200    15.4600 f          1 XY7      -0.237000
     13 C3         -14.8260     9.1600    13.8150 c5         1 XY7       0.117300
     14 O3         -13.7930    10.0820    14.2140 oh         1 XY7      -0.687000
     15 C7         -14.6940     7.7720    14.5120 c5         1 XY7       0.156300
     16 C9         -13.5510     6.8700    13.9770 c3         1 XY7       0.192600
     17 O5         -13.7600     6.6160    12.5750 os         1 XY7      -0.346100
     18 P          -12.6800     5.6830    11.7210 p3         1 XY7       0.212300
     19 OP1        -13.7730     4.6240    11.0450 oh         1 XY7      -0.529600
     20 OP2        -12.3650     6.7640    10.4940 oh         1 XY7      -0.529600
     21 H1         -21.3490     8.0740    13.5190 hn         1 XY7       0.343500
     22 H2         -16.8030     7.8990    11.9170 h4         1 XY7       0.229000
     23 H3         -18.8040     7.8050    10.2520 ha         1 XY7       0.220000
     24 H4         -17.3460     8.1250    15.5470 h2         1 XY7       0.118700
     25 H5         -16.7840    10.1800    13.5120 h1         1 XY7       0.093700
     26 H6         -14.8100     9.0280    12.7230 h1         1 XY7       0.073700
     27 H7         -14.0710    10.9840    13.9270 ho         1 XY7       0.520000
     28 H8         -14.5550     7.8960    15.5950 h1         1 XY7       0.085700
     29 H9         -13.5420     5.9300    14.5430 h1         1 XY7       0.049200
     30 H10        -12.5900     7.3760    14.1380 h1         1 XY7       0.049200
     31 H11        -13.4610     3.7130    11.2320 ho         1 XY7       0.468500
     32 H12        -11.3900     6.8510    10.4150 ho         1 XY7       0.468500
@<TRIPOS>BOND
     1     1     2 1   
     2     1     6 1   
     3     1     7 2   
     4     2     3 1   
     5     2    21 1   
     6     3     4 1   
     7     3     8 2   
     8     4     5 1   
     9     4     9 1   
    10     5     6 2   
    11     5    22 1   
    12     6    23 1   
    13     9    10 1   
    14     9    11 1   
    15     9    24 1   
    16    10    15 1   
    17    11    12 1   
    18    11    13 1   
    19    11    25 1   
    20    13    14 1   
    21    13    15 1   
    22    13    26 1   
    23    14    27 1   
    24    15    16 1   
    25    15    28 1   
    26    16    17 1   
    27    16    29 1   
    28    16    30 1   
    29    17    18 1   
    30    18    19 1   
    31    18    20 1   
    32    19    31 1   
    33    20    32 1   
@<TRIPOS>SUBSTRUCTURE
     1 XY7         1 TEMP              0 ****  ****    0 ROOT
