@<TRIPOS>MOLECULE
XY7
   32    33     1     0     0
SMALL
abcg2


@<TRIPOS>ATOM
      1 C4         -19.7710     7.2910    11.7270 c          1 XY7       0.591200
      2 N3         -20.0180     8.0270    12.8800 ns         1 XY7      -0.468500
      3 C2         -19.1360     8.3460    13.8760 c          1 XY7       0.613000
      4 N1         -17.8560     7.8620    13.6980 n          1 XY7      -0.336000
      5 C6         -17.5250     7.1340    12.5940 cc         1 XY7       0.017600
      6 C5         -18.4070     6.8380    11.6230 cd         1 XY7      -0.391200
      7 O4         -20.6620     7.0860    10.9250 o          1 XY7      -0.524000
      8 O2         -19.4480     9.0080    14.8450 o          1 XY7      -0.560000
      9 C1         -16.8970     8.1580    14.7790 c5         1 XY7       0.320700
     10 O1         -15.7940     7.3150    14.6730 os         1 XY7      -0.450000
     11 C8         -16.3690     9.5920    14.6970 c5         1 XY7       0.119300
     12 F2         -16.1230    10.0310    15.9890 f          1 XY7      -0.237000
     13 C3         -15.0460     9.4050    13.9620 c5         1 XY7       0.117300
     14 O3         -14.0830    10.3830    14.1930 oh         1 XY7      -0.687000
     15 C7         -14.5870     8.0590    14.5130 c5         1 XY7       0.156300
     16 C9         -13.6020     7.2920    13.6660 c3         1 XY7       0.192600
     17 O5         -14.0970     7.1460    12.3500 os         1 XY7      -0.346100
     18 P          -13.6720     5.7940    11.5050 p3         1 XY7       0.212300
     19 OP1        -14.5940     6.1480    10.2030 oh         1 XY7      -0.529600
     20 OP2        -12.2120     6.3140    10.9730 oh         1 XY7      -0.529600
     21 H1         -20.9580     8.3820    13.0060 hn         1 XY7       0.343500
     22 H2         -16.5020     6.8010    12.5350 h4         1 XY7       0.229000
     23 H3         -18.1000     6.2590    10.7660 ha         1 XY7       0.220000
     24 H4         -17.4180     7.9900    15.7240 h2         1 XY7       0.118700
     25 H5         -17.0550    10.2930    14.2240 h1         1 XY7       0.093700
     26 H6         -15.2780     9.3010    12.8930 h1         1 XY7       0.073700
     27 H7         -14.2350    11.1210    13.5940 ho         1 XY7       0.520000
     28 H8         -14.1150     8.2110    15.4930 h1         1 XY7       0.085700
     29 H9         -13.4050     6.3200    14.1370 h1         1 XY7       0.049200
     30 H10        -12.6570     7.8430    13.6650 h1         1 XY7       0.049200
     31 H11        -15.1750     5.4110     9.9790 ho         1 XY7       0.468500
     32 H12        -11.5750     5.5900    10.9440 ho         1 XY7       0.468500
@<TRIPOS>BOND
     1     1     2 1   
     2     1     6 1   
     3     1     7 2   
     4     2     3 1   
     5     2    21 1   
     6     3     4 1   
     7     3     8 2   
     8     4     5 1   
     9     4     9 1   
    10     5     6 2   
    11     5    22 1   
    12     6    23 1   
    13     9    10 1   
    14     9    11 1   
    15     9    24 1   
    16    10    15 1   
    17    11    12 1   
    18    11    13 1   
    19    11    25 1   
    20    13    14 1   
    21    13    15 1   
    22    13    26 1   
    23    14    27 1   
    24    15    16 1   
    25    15    28 1   
    26    16    17 1   
    27    16    29 1   
    28    16    30 1   
    29    17    18 1   
    30    18    19 1   
    31    18    20 1   
    32    19    31 1   
    33    20    32 1   
@<TRIPOS>SUBSTRUCTURE
     1 XY7         1 TEMP              0 ****  ****    0 ROOT
