@<TRIPOS>MOLECULE
XY9
   29    29     1     0     0
SMALL
No Charge or Current Charge


@<TRIPOS>ATOM
      1 C2          21.1320     4.8200   -15.4720 c6         1 XY9       0.201300
      2 C5          23.1810     6.6540   -14.4010 c6         1 XY9       0.168600
      3 C1          21.3330     6.3110   -15.9470 c6         1 XY9       0.361300
      4 C3          22.4380     4.2480   -14.8060 c6         1 XY9       0.195300
      5 C4          23.0600     5.2380   -13.7640 c6         1 XY9       0.197300
      6 O5          21.9100     7.1270   -14.9110 os         1 XY9      -0.489000
      7 O2          20.0230     4.7190   -14.5390 os         1 XY9      -0.554700
      8 O34         18.3780     5.1910   -16.3080 o          1 XY9      -0.725200
      9 O35         18.6460     2.9010   -15.4370 o          1 XY9      -0.725200
     10 O36         17.6270     4.6450   -14.0180 o          1 XY9      -0.725200
     11 O3          23.4410     3.9230   -15.8080 os         1 XY9      -0.604700
     12 O39         24.7170     2.3890   -17.2320 o          1 XY9      -0.721200
     13 O40         22.3630     1.8950   -16.6640 o          1 XY9      -0.721200
     14 O41         24.1070     1.7350   -14.9280 o          1 XY9      -0.721200
     15 O4          22.2780     5.2840   -12.5450 os         1 XY9      -0.565700
     16 O44         22.0240     5.4930   -10.1120 o          1 XY9      -0.725533
     17 O45         24.0990     6.2630   -11.2110 o          1 XY9      -0.725533
     18 O46         23.6050     3.8510   -11.0620 o          1 XY9      -0.725533
     19 S33         18.5400     4.3330   -15.1270 s6         1 XY9       1.498300
     20 S38         23.6780     2.3460   -16.1930 s6         1 XY9       1.499300
     21 S43         23.0690     5.2190   -11.1080 s6         1 XY9       1.502300
     22 H2          20.9120     4.2000   -16.3530 h1         1 XY9       0.081700
     23 H51         23.9220     6.6360   -15.2140 h1         1 XY9       0.026200
     24 H52         23.5430     7.3700   -13.6510 h1         1 XY9       0.026200
     25 H1          20.3480     6.7290   -16.2040 h2         1 XY9       0.057700
     26 H3          22.1640     3.3350   -14.2580 h1         1 XY9       0.114700
     27 H4          24.0720     4.8740   -13.5290 h1         1 XY9       0.053700
     28 O1          22.1800     6.4350   -17.0890 oh         1 XY9      -0.654000
     29 HO1         22.3600     7.3930   -17.1650 ho         1 XY9       0.400000
@<TRIPOS>BOND
     1     1     3 1   
     2     1     4 1   
     3     1     7 1   
     4     1    22 1   
     5     2     5 1   
     6     2     6 1   
     7     2    23 1   
     8     2    24 1   
     9     3     6 1   
    10     3    25 1   
    11     3    28 1   
    12     4     5 1   
    13     4    11 1   
    14     4    26 1   
    15     5    15 1   
    16     5    27 1   
    17     7    19 1   
    18     8    19 1   
    19     9    19 1   
    20    10    19 1   
    21    11    20 1   
    22    12    20 1   
    23    13    20 1   
    24    14    20 1   
    25    15    21 1   
    26    16    21 1   
    27    17    21 1   
    28    18    21 1   
    29    28    29 1   
@<TRIPOS>SUBSTRUCTURE
     1 XY9         1 TEMP              0 ****  ****    0 ROOT
