@<TRIPOS>MOLECULE
XY9
   29    29     1     0     0
SMALL
abcg2


@<TRIPOS>ATOM
      1 C2          21.2090     4.9520   -15.4410 c6         1 XY9       0.201300
      2 C5          23.2500     6.7680   -14.5620 c6         1 XY9       0.168600
      3 C1          21.3960     6.3700   -15.9890 c6         1 XY9       0.361300
      4 C3          22.4590     4.4070   -14.7470 c6         1 XY9       0.195300
      5 C4          23.1220     5.4440   -13.8340 c6         1 XY9       0.197300
      6 O5          21.9970     7.2160   -15.0450 os         1 XY9      -0.489000
      7 O2          20.1630     4.9880   -14.4790 os         1 XY9      -0.554700
      8 O34         18.3170     4.8970   -16.1350 o          1 XY9      -0.725200
      9 O35         19.0630     2.8360   -15.0390 o          1 XY9      -0.725200
     10 O36         17.9300     4.5810   -13.7180 o          1 XY9      -0.725200
     11 O3          23.4280     4.0720   -15.7320 os         1 XY9      -0.604700
     12 O39         24.7050     2.5480   -17.0690 o          1 XY9      -0.721200
     13 O40         22.3940     1.9400   -16.4600 o          1 XY9      -0.721200
     14 O41         24.1570     1.9180   -14.7510 o          1 XY9      -0.721200
     15 O4          22.3440     5.6640   -12.6660 os         1 XY9      -0.565700
     16 O44         21.7740     5.3780   -10.3580 o          1 XY9      -0.725533
     17 O45         24.1430     5.2320   -11.0180 o          1 XY9      -0.725533
     18 O46         22.5970     3.4230   -11.6090 o          1 XY9      -0.725533
     19 S33         18.7420     4.2570   -14.8860 s6         1 XY9       1.498300
     20 S38         23.6890     2.4710   -16.0240 s6         1 XY9       1.499300
     21 S43         22.7580     4.8460   -11.2970 s6         1 XY9       1.502300
     22 H2          20.9600     4.2840   -16.2710 h1         1 XY9       0.081700
     23 H51         23.9810     6.6660   -15.3700 h1         1 XY9       0.026200
     24 H52         23.6200     7.5360   -13.8830 h1         1 XY9       0.026200
     25 H1          20.4080     6.8090   -16.1640 h2         1 XY9       0.057700
     26 H3          22.1740     3.5330   -14.1540 h1         1 XY9       0.114700
     27 H4          24.1290     5.0920   -13.5820 h1         1 XY9       0.053700
     28 O1          22.1280     6.2860   -17.1700 oh         1 XY9      -0.654000
     29 HO1         22.1140     7.1470   -17.6020 ho         1 XY9       0.400000
@<TRIPOS>BOND
     1     1     3 1   
     2     1     4 1   
     3     1     7 1   
     4     1    22 1   
     5     2     5 1   
     6     2     6 1   
     7     2    23 1   
     8     2    24 1   
     9     3     6 1   
    10     3    25 1   
    11     3    28 1   
    12     4     5 1   
    13     4    11 1   
    14     4    26 1   
    15     5    15 1   
    16     5    27 1   
    17     7    19 1   
    18     8    19 1   
    19     9    19 1   
    20    10    19 1   
    21    11    20 1   
    22    12    20 1   
    23    13    20 1   
    24    14    20 1   
    25    15    21 1   
    26    16    21 1   
    27    17    21 1   
    28    18    21 1   
    29    28    29 1   
@<TRIPOS>SUBSTRUCTURE
     1 XY9         1 TEMP              0 ****  ****    0 ROOT
