@<TRIPOS>MOLECULE
XYA
   32    34     1     0     0
SMALL
abcg2


@<TRIPOS>ATOM
      1 O5          -4.4210     1.5420    -1.1910 oh         1 XYA      -0.700000
      2 C5          -3.8330     1.0320    -0.0190 c3         1 XYA       0.163600
      3 C4          -3.0750    -0.2250    -0.3690 c5         1 XYA       0.130300
      4 O4          -1.9780     0.0830    -1.2400 os         1 XYA      -0.427000
      5 C1          -0.8690    -0.6960    -0.9330 c5         1 XYA       0.328300
      6 N9           0.2040     0.1590    -0.4420 na         1 XYA      -0.297300
      7 C8           0.1330     1.4330     0.0450 cc         1 XYA       0.438700
      8 N7           1.2850     1.9050     0.4240 nd         1 XYA      -0.567100
      9 C7           2.1680     0.8850     0.1810 ca         1 XYA      -0.092600
     10 C6           3.5540     0.7470     0.3720 ca         1 XYA       0.446900
     11 N1           4.1230    -0.4120     0.0200 nb         1 XYA      -0.304000
     12 C2           3.3660    -1.3790    -0.4920 ca         1 XYA       0.177900
     13 N3           2.0630    -1.3700    -0.7140 nb         1 XYA      -0.224000
     14 C9           1.5130    -0.2100    -0.3600 ca         1 XYA       0.118500
     15 N6           4.3170     1.7210     0.8730 nv         1 XYA      -1.062900
     16 C10         -1.3200    -1.7170     0.1190 c5         1 XYA       0.128300
     17 O2          -1.8020    -2.8260    -0.5910 oh         1 XYA      -0.699000
     18 C3          -2.4520    -0.9620     0.8170 c5         1 XYA       0.095300
     19 O3          -1.8750    -0.1100     1.7740 oh         1 XYA      -0.702000
     20 H5          -4.8340     2.3820    -0.9740 ho         1 XYA       0.506000
     21 H5'1        -4.5900     0.7690     0.7330 h1         1 XYA       0.023700
     22 H5'2        -3.1590     1.7600     0.4460 h1         1 XYA       0.023700
     23 H4          -3.7540    -0.9120    -0.8870 h1         1 XYA       0.081700
     24 H1          -0.4870    -1.2010    -1.8260 h2         1 XYA       0.122700
     25 H8          -0.7960     1.9780     0.0900 h5         1 XYA       0.070800
     26 H2           3.8900    -2.2910    -0.7570 h5         1 XYA       0.044100
     27 HN61         5.2850     1.5430     1.0820 hn         1 XYA       0.503500
     28 HN62         3.9040     2.5610     1.2400 hn         1 XYA       0.503500
     29 H7          -0.5140    -1.9830     0.8120 h1         1 XYA       0.090700
     30 H6          -2.1550    -3.4630     0.0390 ho         1 XYA       0.512000
     31 H3          -3.1740    -1.6490     1.2730 h1         1 XYA       0.053700
     32 H9          -2.5640     0.2200     2.3590 ho         1 XYA       0.510000
@<TRIPOS>BOND
     1     1     2 1   
     2     1    20 1   
     3     2     3 1   
     4     2    21 1   
     5     2    22 1   
     6     3     4 1   
     7     3    18 1   
     8     3    23 1   
     9     4     5 1   
    10     5     6 1   
    11     5    16 1   
    12     5    24 1   
    13     6     7 1   
    14     6    14 1   
    15     7     8 2   
    16     7    25 1   
    17     8     9 1   
    18     9    10 ar  
    19     9    14 ar  
    20    10    11 ar  
    21    10    15 1   
    22    11    12 ar  
    23    12    13 ar  
    24    12    26 1   
    25    13    14 ar  
    26    15    27 1   
    27    15    28 1   
    28    16    17 1   
    29    16    18 1   
    30    16    29 1   
    31    17    30 1   
    32    18    19 1   
    33    18    31 1   
    34    19    32 1   
@<TRIPOS>SUBSTRUCTURE
     1 XYA         1 TEMP              0 ****  ****    0 ROOT
