@<TRIPOS>MOLECULE
XYA
   32    34     1     0     0
SMALL
No Charge or Current Charge


@<TRIPOS>ATOM
      1 O5          -3.9830     0.8060    -2.4750 oh         1 XYA      -0.700000
      2 C5          -3.8070     0.8750    -1.0480 c3         1 XYA       0.163600
      3 C4          -2.9490    -0.3120    -0.5260 c5         1 XYA       0.130300
      4 O4          -1.5580    -0.1490    -0.8890 os         1 XYA      -0.427000
      5 C1          -0.7630    -1.0010    -0.0250 c5         1 XYA       0.328300
      6 N9           0.4400    -0.2650     0.3750 na         1 XYA      -0.297300
      7 C8           0.6250     0.4400     1.5710 cc         1 XYA       0.438700
      8 N7           1.8580     0.9800     1.6380 nd         1 XYA      -0.567100
      9 C7           2.4450     0.5920     0.4300 ca         1 XYA      -0.092600
     10 C6           3.7370     0.8600    -0.0690 ca         1 XYA       0.446900
     11 N1           4.1340     0.3860    -1.2610 nb         1 XYA      -0.304000
     12 C2           3.2220    -0.3500    -1.9420 ca         1 XYA       0.177900
     13 N3           1.9640    -0.6540    -1.5420 nb         1 XYA      -0.224000
     14 C9           1.5980    -0.1630    -0.3410 ca         1 XYA       0.118500
     15 N6           4.6530     1.5940     0.6190 nv         1 XYA      -1.062900
     16 C10         -1.7340    -1.5320     1.1050 c5         1 XYA       0.128300
     17 O2          -2.2080    -2.8640     0.8110 oh         1 XYA      -0.699000
     18 C3          -2.8980    -0.4870     1.0260 c5         1 XYA       0.095300
     19 O3          -2.5950     0.7330     1.7280 oh         1 XYA      -0.702000
     20 H5          -4.4700     1.6200    -2.7450 ho         1 XYA       0.506000
     21 H5'1        -4.7870     0.8420    -0.5520 h1         1 XYA       0.023700
     22 H5'2        -3.3240     1.8210    -0.7660 h1         1 XYA       0.023700
     23 H4          -3.3270    -1.2320    -0.9930 h1         1 XYA       0.081700
     24 H1          -0.3970    -1.8620    -0.5990 h2         1 XYA       0.122700
     25 H8          -0.1380     0.5130     2.3360 h5         1 XYA       0.070800
     26 H2           3.5330    -0.7390    -2.9100 h5         1 XYA       0.044100
     27 HN61         5.6310     1.5030     0.3570 hn         1 XYA       0.503500
     28 HN62         4.4580     1.7730     1.6010 hn         1 XYA       0.503500
     29 H7          -1.2470    -1.5150     2.0910 h1         1 XYA       0.090700
     30 H6          -2.6770    -3.1960     1.6140 ho         1 XYA       0.512000
     31 H3          -3.8380    -0.9140     1.4070 h1         1 XYA       0.053700
     32 H9          -3.4440     1.2110     1.8800 ho         1 XYA       0.510000
@<TRIPOS>BOND
     1     1     2 1   
     2     1    20 1   
     3     2     3 1   
     4     2    21 1   
     5     2    22 1   
     6     3     4 1   
     7     3    18 1   
     8     3    23 1   
     9     4     5 1   
    10     5     6 1   
    11     5    16 1   
    12     5    24 1   
    13     6     7 1   
    14     6    14 1   
    15     7     8 2   
    16     7    25 1   
    17     8     9 1   
    18     9    10 ar  
    19     9    14 ar  
    20    10    11 ar  
    21    10    15 1   
    22    11    12 ar  
    23    12    13 ar  
    24    12    26 1   
    25    13    14 ar  
    26    15    27 1   
    27    15    28 1   
    28    16    17 1   
    29    16    18 1   
    30    16    29 1   
    31    17    30 1   
    32    18    19 1   
    33    18    31 1   
    34    19    32 1   
@<TRIPOS>SUBSTRUCTURE
     1 XYA         1 TEMP              0 ****  ****    0 ROOT
