@<TRIPOS>MOLECULE
XYB
   37    38     1     0     0
SMALL
bcc


@<TRIPOS>ATOM
      1 O4          -0.0430     0.1760    -0.6210 os         1 XYB      -0.390600
      2 C1          -1.2080     0.0220     0.1040 c6         1 XYB       0.305900
      3 C2          -2.3110     0.8260    -0.5870 c6         1 XYB       0.129100
      4 C3          -3.6210     0.6060     0.1530 c6         1 XYB       0.159100
      5 C4          -3.8940    -0.8900     0.2780 c6         1 XYB       0.066100
      6 C5          -2.6880    -1.5900     0.8990 c6         1 XYB       0.109400
      7 O2          -2.0150     2.1980    -0.5700 oh         1 XYB      -0.577800
      8 O3          -4.6440     1.2700    -0.5420 oh         1 XYB      -0.577800
      9 O6          -5.0430    -1.0420     1.0800 oh         1 XYB      -0.599800
     10 O5          -1.5260    -1.3430     0.1370 os         1 XYB      -0.408600
     11 C9           1.1600     0.0000     0.1060 c6         1 XYB       0.117100
     12 C10          1.6380     1.3540     0.6300 c6         1 XYB       0.112400
     13 O9           2.8740     1.2280     1.2900 os         1 XYB      -0.426600
     14 C6           3.8950     0.8060     0.4130 c6         1 XYB       0.313900
     15 O1           5.0780     0.7300     1.1180 oh         1 XYB      -0.582800
     16 C7           3.5660    -0.5840    -0.1250 c6         1 XYB       0.082100
     17 O7           4.5190    -1.0100    -1.0680 oh         1 XYB      -0.601800
     18 C8           2.2090    -0.5820    -0.8250 c6         1 XYB       0.156100
     19 O8           1.8160    -1.8760    -1.1980 oh         1 XYB      -0.573800
     20 H1          -1.0880     0.3990     1.1380 h2         1 XYB       0.031700
     21 H2          -2.4160     0.4480    -1.6150 h1         1 XYB       0.067700
     22 H3          -3.5070     1.0120     1.1730 h1         1 XYB       0.051700
     23 H4          -4.0590    -1.2960    -0.7300 h1         1 XYB       0.058700
     24 H5          -2.5610    -1.2520     1.9380 h1         1 XYB       0.056700
     25 H6          -2.8380    -2.6700     0.9170 h1         1 XYB       0.056700
     26 H7          -1.2410     2.3430    -1.1230 ho         1 XYB       0.416000
     27 H8          -5.4700     1.1110    -0.0730 ho         1 XYB       0.419000
     28 H9          -5.3880    -1.9310     0.9590 ho         1 XYB       0.414000
     29 H10          1.0110    -0.6900     0.9460 h1         1 XYB       0.077700
     30 H11          1.7090     2.0610    -0.2090 h1         1 XYB       0.058700
     31 H12          0.9270     1.7650     1.3490 h1         1 XYB       0.058700
     32 H13          3.9670     1.5200    -0.4270 h2         1 XYB       0.031700
     33 H14          5.4710     1.6070     1.1880 ho         1 XYB       0.425000
     34 H15          3.5150    -1.2730     0.7320 h1         1 XYB       0.068700
     35 H16          5.3390    -1.2090    -0.6070 ho         1 XYB       0.425000
     36 H17          2.2820     0.0780    -1.7070 h1         1 XYB       0.049700
     37 H18          2.4850    -2.2290    -1.7950 ho         1 XYB       0.420000
@<TRIPOS>BOND
     1     1     2 1   
     2     1    11 1   
     3     2     3 1   
     4     2    10 1   
     5     2    20 1   
     6     3     4 1   
     7     3     7 1   
     8     3    21 1   
     9     4     5 1   
    10     4     8 1   
    11     4    22 1   
    12     5     6 1   
    13     5     9 1   
    14     5    23 1   
    15     6    10 1   
    16     6    24 1   
    17     6    25 1   
    18     7    26 1   
    19     8    27 1   
    20     9    28 1   
    21    11    12 1   
    22    11    18 1   
    23    11    29 1   
    24    12    13 1   
    25    12    30 1   
    26    12    31 1   
    27    13    14 1   
    28    14    15 1   
    29    14    16 1   
    30    14    32 1   
    31    15    33 1   
    32    16    17 1   
    33    16    18 1   
    34    16    34 1   
    35    17    35 1   
    36    18    19 1   
    37    18    36 1   
    38    19    37 1   
@<TRIPOS>SUBSTRUCTURE
     1 XYB         1 TEMP              0 ****  ****    0 ROOT
