@<TRIPOS>MOLECULE
XYB
   37    38     1     0     0
SMALL
No Charge or Current Charge


@<TRIPOS>ATOM
      1 O4          -0.0420     0.1970    -0.8220 os         1 XYB      -0.437000
      2 C1          -1.2480     0.2060    -0.0320 c6         1 XYB       0.352300
      3 C2          -2.4520     0.7090    -0.8960 c6         1 XYB       0.152300
      4 C3          -3.7510     0.6530    -0.0250 c6         1 XYB       0.182300
      5 C4          -3.9440    -0.7750     0.5730 c6         1 XYB       0.089300
      6 C5          -2.6540    -1.2080     1.3280 c6         1 XYB       0.132600
      7 O2          -2.2010     2.0370    -1.4250 oh         1 XYB      -0.700000
      8 O3          -4.9280     1.0030    -0.7750 oh         1 XYB      -0.640000
      9 O6          -5.1020    -0.8040     1.4370 oh         1 XYB      -0.722000
     10 O5          -1.5150    -1.1280     0.4430 os         1 XYB      -0.455000
     11 C9           1.1880    -0.0960    -0.1050 c6         1 XYB       0.140300
     12 C10          1.6020     1.0690     0.8470 c6         1 XYB       0.135600
     13 O9           2.8660     0.7840     1.4950 os         1 XYB      -0.473000
     14 C6           3.9540     0.6130     0.5860 c6         1 XYB       0.360300
     15 O1           5.0820     0.3920     1.4050 oh         1 XYB      -0.705000
     16 C7           3.6830    -0.6190    -0.3370 c6         1 XYB       0.105300
     17 O7           4.7740    -0.8630    -1.2600 oh         1 XYB      -0.724000
     18 C8           2.3560    -0.3740    -1.1070 c6         1 XYB       0.179300
     19 O8           2.0930    -1.4970    -1.9700 oh         1 XYB      -0.696000
     20 H1          -1.1220     0.8820     0.8270 h2         1 XYB       0.031700
     21 H2          -2.5750    -0.0010    -1.7280 h1         1 XYB       0.067700
     22 H3          -3.6260     1.3560     0.8120 h1         1 XYB       0.051700
     23 H4          -4.0880    -1.4770    -0.2630 h1         1 XYB       0.058700
     24 H5          -2.4830    -0.5640     2.2030 h1         1 XYB       0.056700
     25 H6          -2.7540    -2.2450     1.6800 h1         1 XYB       0.056700
     26 H7          -1.3270     1.9880    -1.8800 ho         1 XYB       0.515000
     27 H8          -5.6730     0.6620    -0.2290 ho         1 XYB       0.458000
     28 H9          -5.2620    -1.7450     1.6920 ho         1 XYB       0.513000
     29 H10          1.0380    -1.0030     0.4990 h1         1 XYB       0.077700
     30 H11          1.6880     2.0090     0.2810 h1         1 XYB       0.058700
     31 H12          0.8410     1.2100     1.6260 h1         1 XYB       0.058700
     32 H13          4.0900     1.5260    -0.0130 h2         1 XYB       0.031700
     33 H14          4.7690     0.6810     2.2910 ho         1 XYB       0.524000
     34 H15          3.5450    -1.4960     0.3150 h1         1 XYB       0.068700
     35 H16          5.6010    -0.7580    -0.7290 ho         1 XYB       0.524000
     36 H17          2.4890     0.5300    -1.7210 h1         1 XYB       0.049700
     37 H18          2.9880    -1.7610    -2.2950 ho         1 XYB       0.519000
@<TRIPOS>BOND
     1     1     2 1   
     2     1    11 1   
     3     2     3 1   
     4     2    10 1   
     5     2    20 1   
     6     3     4 1   
     7     3     7 1   
     8     3    21 1   
     9     4     5 1   
    10     4     8 1   
    11     4    22 1   
    12     5     6 1   
    13     5     9 1   
    14     5    23 1   
    15     6    10 1   
    16     6    24 1   
    17     6    25 1   
    18     7    26 1   
    19     8    27 1   
    20     9    28 1   
    21    11    12 1   
    22    11    18 1   
    23    11    29 1   
    24    12    13 1   
    25    12    30 1   
    26    12    31 1   
    27    13    14 1   
    28    14    15 1   
    29    14    16 1   
    30    14    32 1   
    31    15    33 1   
    32    16    17 1   
    33    16    18 1   
    34    16    34 1   
    35    17    35 1   
    36    18    19 1   
    37    18    36 1   
    38    19    37 1   
@<TRIPOS>SUBSTRUCTURE
     1 XYB         1 TEMP              0 ****  ****    0 ROOT
