@<TRIPOS>MOLECULE
XYC
   25    25     1     0     0
SMALL
bcc


@<TRIPOS>ATOM
      1 O            0.6220    20.8920   103.3590 o          1 XYC      -0.841800
      2 C            1.0790    21.8280   104.0450 c          1 XYC       0.902600
      3 CA           2.4860    22.3690   103.6720 c3         1 XYC       0.011500
      4 N            3.2730    21.5150   102.7930 n8         1 XYC      -0.888800
      5 CB           2.3360    23.7620   103.0530 c3         1 XYC      -0.047400
      6 C04          3.6420    24.4850   102.7150 c5         1 XYC      -0.056700
      7 C08          3.3680    25.8810   102.1440 c5         1 XYC      -0.072400
      8 C07          3.1170    26.7730   103.3730 c5         1 XYC      -0.077900
      9 C06          3.8150    26.0610   104.5550 c5         1 XYC      -0.077900
     10 C05          4.4860    24.8210   103.9470 c5         1 XYC      -0.072400
     11 HA           3.0450    22.4730   104.6090 h1         1 XYC       0.037700
     12 H            3.4010    20.6170   103.2450 hn         1 XYC       0.323800
     13 H2           2.7080    21.3030   101.9780 hn         1 XYC       0.323800
     14 H6           1.7340    24.3760   103.7280 hc         1 XYC       0.038200
     15 H7           1.7480    23.6700   102.1300 hc         1 XYC       0.038200
     16 H8           4.2070    23.8730   102.0090 hc         1 XYC       0.058700
     17 H9           4.2520    26.2320   101.6040 hc         1 XYC       0.030200
     18 H10          2.5360    25.8950   101.4370 hc         1 XYC       0.030200
     19 H11          3.5020    27.7820   103.2180 hc         1 XYC       0.030450
     20 H12          2.0480    26.8790   103.5640 hc         1 XYC       0.030450
     21 H13          4.5380    26.7060   105.0560 hc         1 XYC       0.030450
     22 H14          3.0850    25.7710   105.3120 hc         1 XYC       0.030450
     23 H15          4.5760    23.9980   104.6590 hc         1 XYC       0.030200
     24 H16          5.5020    25.0670   103.6240 hc         1 XYC       0.030200
     25 OXT          0.5130    22.4000   105.0010 o          1 XYC      -0.841800
@<TRIPOS>BOND
     1     1     2 1   
     2     2     3 1   
     3     2    25 1   
     4     3     4 1   
     5     3     5 1   
     6     3    11 1   
     7     4    12 1   
     8     4    13 1   
     9     5     6 1   
    10     5    14 1   
    11     5    15 1   
    12     6     7 1   
    13     6    10 1   
    14     6    16 1   
    15     7     8 1   
    16     7    17 1   
    17     7    18 1   
    18     8     9 1   
    19     8    19 1   
    20     8    20 1   
    21     9    10 1   
    22     9    21 1   
    23     9    22 1   
    24    10    23 1   
    25    10    24 1   
@<TRIPOS>SUBSTRUCTURE
     1 XYC         1 TEMP              0 ****  ****    0 ROOT
