@<TRIPOS>MOLECULE
XYC
   25    25     1     0     0
SMALL
No Charge or Current Charge


@<TRIPOS>ATOM
      1 O            0.2220    21.4460   103.3750 o          1 XYC      -0.841800
      2 C            1.0560    21.8410   104.1860 c          1 XYC       0.902600
      3 CA           2.4710    22.3340   103.6520 c3         1 XYC       0.011500
      4 N            3.2110    21.3970   102.7210 n8         1 XYC      -0.888800
      5 CB           2.3400    23.7490   103.0190 c3         1 XYC      -0.047400
      6 C04          3.6800    24.5000   102.7330 c5         1 XYC      -0.056700
      7 C08          3.5070    25.9090   102.1020 c5         1 XYC      -0.072400
      8 C07          3.0770    26.7920   103.3100 c5         1 XYC      -0.077900
      9 C06          3.7300    26.1110   104.5570 c5         1 XYC      -0.077900
     10 C05          4.5220    24.9040   103.9760 c5         1 XYC      -0.072400
     11 HA           3.1000    22.4350   104.5460 h1         1 XYC       0.037700
     12 H            3.3370    20.4910   103.1860 hn         1 XYC       0.323800
     13 H2           2.6030    21.1830   101.9240 hn         1 XYC       0.323800
     14 H6           1.7090    24.3530   103.6820 hc         1 XYC       0.038200
     15 H7           1.7730    23.6570   102.0840 hc         1 XYC       0.038200
     16 H8           4.2650    23.8590   102.0630 hc         1 XYC       0.058700
     17 H9           4.4520    26.2660   101.6730 hc         1 XYC       0.030200
     18 H10          2.7680    25.9220   101.2920 hc         1 XYC       0.030200
     19 H11          3.4090    27.8290   103.1870 hc         1 XYC       0.030450
     20 H12          1.9850    26.8210   103.4110 hc         1 XYC       0.030450
     21 H13          4.3860    26.7980   105.1040 hc         1 XYC       0.030450
     22 H14          2.9630    25.7780   105.2650 hc         1 XYC       0.030450
     23 H15          4.6370    24.0940   104.7040 hc         1 XYC       0.030200
     24 H16          5.5340    25.2070   103.6820 hc         1 XYC       0.030200
     25 OXT          0.8810    21.7540   105.3970 o          1 XYC      -0.841800
@<TRIPOS>BOND
     1     1     2 1   
     2     2     3 1   
     3     2    25 1   
     4     3     4 1   
     5     3     5 1   
     6     3    11 1   
     7     4    12 1   
     8     4    13 1   
     9     5     6 1   
    10     5    14 1   
    11     5    15 1   
    12     6     7 1   
    13     6    10 1   
    14     6    16 1   
    15     7     8 1   
    16     7    17 1   
    17     7    18 1   
    18     8     9 1   
    19     8    19 1   
    20     8    20 1   
    21     9    10 1   
    22     9    21 1   
    23     9    22 1   
    24    10    23 1   
    25    10    24 1   
@<TRIPOS>SUBSTRUCTURE
     1 XYC         1 TEMP              0 ****  ****    0 ROOT
