@<TRIPOS>MOLECULE
XYD
   20    20     1     0     0
SMALL
abcg2


@<TRIPOS>ATOM
      1 C1          -0.7620    -0.0650    -0.6970 ca         1 XYD       0.288000
      2 C2           0.5780    -0.0110    -1.1240 ca         1 XYD      -0.138300
      3 C3           1.5720     0.0520    -0.1590 ca         1 XYD      -0.071000
      4 C4           1.2840     0.0570     1.2010 ca         1 XYD      -0.151000
      5 C5          -0.0380     0.0030     1.6290 ca         1 XYD      -0.040300
      6 C6          -1.0450    -0.0570     0.6710 ca         1 XYD      -0.178000
      7 N           -1.7840    -0.1880    -1.6220 nv         1 XYD      -1.069000
      8 C8          -0.3840     0.0410     3.0900 c3         1 XYD      -0.047800
      9 C9           0.9100    -0.0330    -2.5870 c3         1 XYD      -0.039800
     10 H3           2.6070     0.0930    -0.4800 ha         1 XYD       0.107000
     11 H4           2.0890     0.1020     1.9250 ha         1 XYD       0.111000
     12 H6          -2.0820    -0.1000     0.9910 ha         1 XYD       0.108000
     13 H1N         -2.7020     0.0390    -1.2740 hn         1 XYD       0.442000
     14 H2N         -1.6230     0.2480    -2.5170 hn         1 XYD       0.442000
     15 H81         -0.7280     1.0340     3.3860 hc         1 XYD       0.041033
     16 H82         -1.1810    -0.6610     3.3360 hc         1 XYD       0.041033
     17 H83          0.4790    -0.2010     3.7100 hc         1 XYD       0.041033
     18 H91          0.5170    -0.9260    -3.0800 hc         1 XYD       0.037700
     19 H92          0.4930     0.8290    -3.1180 hc         1 XYD       0.037700
     20 H93          1.9880    -0.0150    -2.7430 hc         1 XYD       0.037700
@<TRIPOS>BOND
     1     1     2 ar  
     2     1     6 ar  
     3     1     7 1   
     4     2     3 ar  
     5     2     9 1   
     6     3     4 ar  
     7     3    10 1   
     8     4     5 ar  
     9     4    11 1   
    10     5     6 ar  
    11     5     8 1   
    12     6    12 1   
    13     7    13 1   
    14     7    14 1   
    15     8    15 1   
    16     8    16 1   
    17     8    17 1   
    18     9    18 1   
    19     9    19 1   
    20     9    20 1   
@<TRIPOS>SUBSTRUCTURE
     1 XYD         1 TEMP              0 ****  ****    0 ROOT
