@<TRIPOS>MOLECULE
XYD
   20    20     1     0     0
SMALL
No Charge or Current Charge


@<TRIPOS>ATOM
      1 C1          -0.7780    -0.0520    -0.6960 ca         1 XYD       0.288000
      2 C2           0.5670     0.0010    -1.1280 ca         1 XYD      -0.138300
      3 C3           1.5950     0.0660    -0.1660 ca         1 XYD      -0.071000
      4 C4           1.2880     0.0770     1.2040 ca         1 XYD      -0.151000
      5 C5          -0.0480     0.0210     1.6340 ca         1 XYD      -0.040300
      6 C6          -1.0760    -0.0410     0.6760 ca         1 XYD      -0.178000
      7 N           -1.8110    -0.1130    -1.5960 nv         1 XYD      -1.069000
      8 C8          -0.3810     0.0360     3.1180 c3         1 XYD      -0.047800
      9 C9           0.9310    -0.0090    -2.6130 c3         1 XYD      -0.039800
     10 H3           2.6370     0.1090    -0.4790 ha         1 XYD       0.107000
     11 H4           2.0940     0.1290     1.9330 ha         1 XYD       0.111000
     12 H6          -2.1120    -0.0800     1.0020 ha         1 XYD       0.108000
     13 H1N         -2.7710    -0.0050    -1.2750 hn         1 XYD       0.442000
     14 H2N         -1.6240     0.0130    -2.5880 hn         1 XYD       0.442000
     15 H81         -0.5300     1.0620     3.4740 hc         1 XYD       0.041033
     16 H82         -1.2970    -0.5290     3.3280 hc         1 XYD       0.041033
     17 H83          0.4250    -0.4110     3.7130 hc         1 XYD       0.041033
     18 H91          0.5580    -0.9150    -3.1050 hc         1 XYD       0.037700
     19 H92          0.5040     0.8590    -3.1300 hc         1 XYD       0.037700
     20 H93          2.0170     0.0220    -2.7670 hc         1 XYD       0.037700
@<TRIPOS>BOND
     1     1     2 ar  
     2     1     6 ar  
     3     1     7 1   
     4     2     3 ar  
     5     2     9 1   
     6     3     4 ar  
     7     3    10 1   
     8     4     5 ar  
     9     4    11 1   
    10     5     6 ar  
    11     5     8 1   
    12     6    12 1   
    13     7    13 1   
    14     7    14 1   
    15     8    15 1   
    16     8    16 1   
    17     8    17 1   
    18     9    18 1   
    19     9    19 1   
    20     9    20 1   
@<TRIPOS>SUBSTRUCTURE
     1 XYD         1 TEMP              0 ****  ****    0 ROOT
