@<TRIPOS>MOLECULE
XYF
   19    19     1     0     0
SMALL
No Charge or Current Charge


@<TRIPOS>ATOM
      1 O3           2.1380    -1.6760    -0.7730 oh         1 XYF      -0.666000
      2 C3           2.2580    -0.3090    -0.3490 c6         1 XYF       0.144300
      3 C4           2.4120     0.6360    -1.5740 c6         1 XYF       0.069300
      4 O4           3.5900     0.2630    -2.3320 oh         1 XYF      -0.727000
      5 C5           2.4360     2.1180    -1.0560 c6         1 XYF       0.461300
      6 F5           2.4150     2.9880    -2.1650 f          1 XYF      -0.288000
      7 O5           1.2570     2.4130    -0.2850 os         1 XYF      -0.577000
      8 C1           1.1620     1.6220     0.9010 c6         1 XYF       0.578800
      9 C2           1.0180     0.0990     0.4940 c6         1 XYF       0.067300
     10 O2           0.8670    -0.7880     1.6390 oh         1 XYF      -0.747000
     11 O1           0.1570     2.0130     1.6400 o          1 XYF      -0.803500
     12 HO3          1.6920    -2.1240    -0.0180 ho         1 XYF       0.418000
     13 H3           3.1500    -0.1980     0.2870 h1         1 XYF       0.035700
     14 H4           1.5180     0.5220    -2.2050 h1         1 XYF       0.053700
     15 HO4          3.6010    -0.7250    -2.3130 ho         1 XYF       0.488000
     16 H5           3.3440     2.3250    -0.4700 h2         1 XYF       0.013700
     17 H1           2.1300     1.7180     1.4130 h2         1 XYF      -0.083300
     18 H2           0.1270     0.0140    -0.1450 h1         1 XYF       0.039700
     19 HO2          0.3130    -0.2800     2.2830 ho         1 XYF       0.523000
@<TRIPOS>BOND
     1     1     2 1   
     2     1    12 1   
     3     2     3 1   
     4     2     9 1   
     5     2    13 1   
     6     3     4 1   
     7     3     5 1   
     8     3    14 1   
     9     4    15 1   
    10     5     6 1   
    11     5     7 1   
    12     5    16 1   
    13     7     8 1   
    14     8     9 1   
    15     8    11 1   
    16     8    17 1   
    17     9    10 1   
    18     9    18 1   
    19    10    19 1   
@<TRIPOS>SUBSTRUCTURE
     1 XYF         1 TEMP              0 ****  ****    0 ROOT
