@<TRIPOS>MOLECULE
XYF
   19    19     1     0     0
SMALL
bcc


@<TRIPOS>ATOM
      1 O3           1.9160    -1.6840    -0.6480 oh         1 XYF      -0.603800
      2 C3           2.1170    -0.3440    -0.2400 c6         1 XYF       0.121100
      3 C4           2.3830     0.5450    -1.4590 c6         1 XYF       0.046100
      4 O4           3.5890     0.2120    -2.1020 oh         1 XYF      -0.604800
      5 C5           2.4660     1.9980    -1.0140 c6         1 XYF       0.419400
      6 F5           2.5840     2.8050    -2.1330 f          1 XYF      -0.269300
      7 O5           1.3360     2.3930    -0.3570 os         1 XYF      -0.530600
      8 C1           1.1070     1.6490     0.9240 c6         1 XYF       0.555600
      9 C2           0.9010     0.1760     0.4960 c6         1 XYF       0.044100
     10 O2           0.6680    -0.5960     1.6510 oh         1 XYF      -0.624800
     11 O1           0.1170     2.1420     1.5890 o          1 XYF      -0.803500
     12 HO3          2.7500    -2.1550    -0.5850 ho         1 XYF       0.379000
     13 H3           2.9850    -0.2780     0.4320 h1         1 XYF       0.035700
     14 H4           1.5260     0.4510    -2.1440 h1         1 XYF       0.053700
     15 HO4          3.4880    -0.6580    -2.4990 ho         1 XYF       0.389000
     16 H5           3.3780     2.1570    -0.4150 h2         1 XYF       0.013700
     17 H1           2.1140     1.6940     1.4370 h2         1 XYF      -0.083300
     18 H2           0.0270     0.1430    -0.1770 h1         1 XYF       0.039700
     19 HO2          0.1320    -0.0210     2.2150 ho         1 XYF       0.424000
@<TRIPOS>BOND
     1     1     2 1   
     2     1    12 1   
     3     2     3 1   
     4     2     9 1   
     5     2    13 1   
     6     3     4 1   
     7     3     5 1   
     8     3    14 1   
     9     4    15 1   
    10     5     6 1   
    11     5     7 1   
    12     5    16 1   
    13     7     8 1   
    14     8     9 1   
    15     8    11 1   
    16     8    17 1   
    17     9    10 1   
    18     9    18 1   
    19    10    19 1   
@<TRIPOS>SUBSTRUCTURE
     1 XYF         1 TEMP              0 ****  ****    0 ROOT
