@<TRIPOS>MOLECULE
XYG
   33    34     1     0     0
SMALL
No Charge or Current Charge


@<TRIPOS>ATOM
      1 N           -6.4310    -1.7790     0.8330 n2         1 XYG      -0.735100
      2 CB1         -6.4290     0.5940     0.3490 c3         1 XYG      -0.173400
      3 CA1         -5.7170    -0.7450     0.4940 ce         1 XYG       0.433000
      4 C1          -4.2260    -0.7900     0.2500 cc         1 XYG       0.482600
      5 N2          -3.4590     0.3130     0.1210 nd         1 XYG      -0.673300
      6 CD2          0.1150     2.6450    -0.9840 ca         1 XYG      -0.053000
      7 CE2          0.2960     4.0400    -1.0110 ca         1 XYG      -0.189500
      8 CZ          -0.5500     4.8700    -0.2610 ca         1 XYG       0.129100
      9 CE1         -1.5710     4.3100     0.5180 ca         1 XYG      -0.189500
     10 CD1         -1.7540     2.9150     0.5460 ca         1 XYG      -0.053000
     11 CG2         -0.9170     2.0710    -0.2140 ca         1 XYG      -0.070800
     12 CA2         -2.1820    -0.2150    -0.0240 cd         1 XYG       0.034400
     13 C2          -2.1520    -1.6880     0.0160 c          1 XYG       0.529200
     14 O2          -1.2090    -2.4640    -0.0920 o          1 XYG      -0.528000
     15 N3          -3.4830    -1.9820     0.1990 n          1 XYG      -0.282300
     16 CA3         -3.9820    -3.3910     0.2080 c3         1 XYG      -0.056000
     17 C           -4.7990    -3.8160    -1.0360 c          1 XYG       0.711000
     18 O           -4.8080    -3.0830    -2.0160 o          1 XYG      -0.721500
     19 OXT         -5.3720    -4.8960    -0.9990 o          1 XYG      -0.721500
     20 HA31        -4.5950    -3.5570     1.1010 h1         1 XYG       0.059200
     21 HA32        -3.1300    -4.0790     0.2770 h1         1 XYG       0.059200
     22 HN2         -7.4140    -1.4920     0.9450 hn         1 XYG       0.371400
     23 HB11        -6.8360     0.9250     1.3110 hc         1 XYG       0.055033
     24 HB12        -5.7790     1.3940    -0.0210 hc         1 XYG       0.055033
     25 HB13        -7.2650     0.5160    -0.3560 hc         1 XYG       0.055033
     26 HB2         -0.1400     0.0340    -0.3630 ha         1 XYG       0.181000
     27 HD2          0.7760     2.0080    -1.5690 ha         1 XYG       0.131500
     28 HE2          1.0940     4.4650    -1.6150 ha         1 XYG       0.111500
     29 HOH          0.3750     6.4280    -0.8730 ho         1 XYG       0.457000
     30 HE1         -2.2210     4.9530     1.1060 ha         1 XYG       0.111500
     31 HD1         -2.5400     2.4980     1.1700 ha         1 XYG       0.131500
     32 CB2         -1.0680     0.5830    -0.2000 ce         1 XYG      -0.108200
     33 OH          -0.3800     6.2210    -0.2810 oh         1 XYG      -0.541100
@<TRIPOS>BOND
     1     1     3 2   
     2     1    22 1   
     3     2     3 1   
     4     2    23 1   
     5     2    24 1   
     6     2    25 1   
     7     3     4 1   
     8     4     5 2   
     9     4    15 1   
    10     5    12 1   
    11     6     7 ar  
    12     6    11 ar  
    13     6    27 1   
    14     7     8 ar  
    15     7    28 1   
    16     8     9 ar  
    17     8    33 1   
    18     9    10 ar  
    19     9    30 1   
    20    10    11 ar  
    21    10    31 1   
    22    11    32 1   
    23    12    13 1   
    24    12    32 2   
    25    13    14 2   
    26    13    15 1   
    27    15    16 1   
    28    16    17 1   
    29    16    20 1   
    30    16    21 1   
    31    17    18 1   
    32    17    19 1   
    33    26    32 1   
    34    29    33 1   
@<TRIPOS>SUBSTRUCTURE
     1 XYG         1 TEMP              0 ****  ****    0 ROOT
