@<TRIPOS>MOLECULE
XYG
   33    34     1     0     0
SMALL
bcc


@<TRIPOS>ATOM
      1 N           -6.0200    -1.7120     1.5620 n2         1 XYG      -0.735100
      2 CB1         -6.3820     0.3290     0.2110 c3         1 XYG      -0.173400
      3 CA1         -5.5990    -0.8130     0.7760 ce         1 XYG       0.433000
      4 C1          -4.1680    -0.8430     0.4060 cc         1 XYG       0.482600
      5 N2          -3.4790     0.2390     0.2650 nd         1 XYG      -0.673300
      6 CD2          0.2810     2.5840    -0.5680 ca         1 XYG      -0.071000
      7 CE2          0.4880     3.9500    -0.5990 ca         1 XYG      -0.207500
      8 CZ          -0.5620     4.8140    -0.2920 ca         1 XYG       0.129100
      9 CE1         -1.8120     4.2880     0.0420 ca         1 XYG      -0.207500
     10 CD1         -2.0090     2.9230     0.0650 ca         1 XYG      -0.071000
     11 CG2         -0.9650     2.0340    -0.2410 ca         1 XYG      -0.070800
     12 CA2         -2.1840    -0.1690    -0.0160 cd         1 XYG       0.034400
     13 C2          -2.1520    -1.6480    -0.0550 c          1 XYG       0.671700
     14 O2          -1.2380    -2.4070    -0.3140 o          1 XYG      -0.603500
     15 N3          -3.4430    -2.0050     0.2660 n          1 XYG      -0.349300
     16 CA3         -4.0010    -3.3170     0.0420 c3         1 XYG      -0.056000
     17 C           -5.0460    -3.3250    -1.0960 c          1 XYG       0.921600
     18 O           -5.2220    -2.2600    -1.7130 o          1 XYG      -0.826800
     19 OXT         -5.6040    -4.4200    -1.2800 o          1 XYG      -0.826800
     20 HA31        -4.4450    -3.7030     0.9580 h1         1 XYG       0.059200
     21 HA32        -3.1740    -3.9800    -0.2200 h1         1 XYG       0.059200
     22 HN2         -7.0060    -1.5750     1.7700 hn         1 XYG       0.371400
     23 HB11        -5.9680     1.2810     0.5400 hc         1 XYG       0.055033
     24 HB12        -6.3310     0.3110    -0.8780 hc         1 XYG       0.055033
     25 HB13        -7.4260     0.2760     0.5170 hc         1 XYG       0.055033
     26 HB2         -0.1850     0.0470    -0.4590 ha         1 XYG       0.131000
     27 HD2          1.1060     1.9250    -0.8090 ha         1 XYG       0.149500
     28 HE2          1.4630     4.3430    -0.8620 ha         1 XYG       0.129500
     29 HOH          0.4660     6.4020    -0.5540 ho         1 XYG       0.418000
     30 HE1         -2.6270     4.9590     0.2830 ha         1 XYG       0.129500
     31 HD1         -2.9830     2.5350     0.3250 ha         1 XYG       0.149500
     32 CB2         -1.0960     0.5960    -0.2400 ce         1 XYG      -0.058200
     33 OH          -0.4300     6.1480    -0.3010 oh         1 XYG      -0.502100
@<TRIPOS>BOND
     1     1     3 2   
     2     1    22 1   
     3     2     3 1   
     4     2    23 1   
     5     2    24 1   
     6     2    25 1   
     7     3     4 1   
     8     4     5 2   
     9     4    15 1   
    10     5    12 1   
    11     6     7 ar  
    12     6    11 ar  
    13     6    27 1   
    14     7     8 ar  
    15     7    28 1   
    16     8     9 ar  
    17     8    33 1   
    18     9    10 ar  
    19     9    30 1   
    20    10    11 ar  
    21    10    31 1   
    22    11    32 1   
    23    12    13 1   
    24    12    32 2   
    25    13    14 2   
    26    13    15 1   
    27    15    16 1   
    28    16    17 1   
    29    16    20 1   
    30    16    21 1   
    31    17    18 1   
    32    17    19 1   
    33    26    32 1   
    34    29    33 1   
@<TRIPOS>SUBSTRUCTURE
     1 XYG         1 TEMP              0 ****  ****    0 ROOT
