@<TRIPOS>MOLECULE
XYH
   21    20     1     0     0
SMALL
No Charge or Current Charge


@<TRIPOS>ATOM
      1 O1B         -1.3740     1.6770    -1.0890 o          1 XYH      -0.712500
      2 O1A         -3.3670     0.8730    -1.0050 o          1 XYH      -0.712500
      3 C1          -2.1610     0.7830    -0.8130 c          1 XYH       0.697000
      4 C2          -1.6580    -0.4920    -0.0330 c3         1 XYH      -0.012700
      5 OH2         -2.5150    -0.8150     1.1140 oh         1 XYH      -0.764000
      6 C3          -0.1890    -0.3670     0.4620 c3         1 XYH       0.145300
      7 OH3         -0.0100    -1.4070     1.4310 oh         1 XYH      -0.665000
      8 C4           0.8890    -0.4980    -0.6570 c3         1 XYH       0.070300
      9 OH4          0.9820    -1.8900    -1.0620 oh         1 XYH      -0.695000
     10 C5           2.2530     0.0970    -0.1760 c          1 XYH       0.578100
     11 OH5          3.0790    -0.5430     0.4700 o          1 XYH      -0.596100
     12 N6           2.4900     1.4110    -0.5790 ns         1 XYH      -0.379400
     13 OH6          3.8070     2.0060    -0.4600 oh         1 XYH      -0.444100
     14 H21         -1.7040    -1.3180    -0.7560 h1         1 XYH       0.037700
     15 HO2         -3.4320    -0.5340     0.8580 ho         1 XYH       0.539000
     16 H31         -0.0780     0.6170     0.9430 h1         1 XYH       0.082700
     17 HO3         -0.9460    -1.5440     1.7310 ho         1 XYH       0.458000
     18 H41          0.5790     0.1070    -1.5180 h1         1 XYH       0.070700
     19 HO4          0.9040    -2.3890    -0.2110 ho         1 XYH       0.520000
     20 HN6          1.8500     1.8580    -1.2360 hn         1 XYH       0.337500
     21 HO6          3.6330     2.8650    -0.0070 ho         1 XYH       0.444000
@<TRIPOS>BOND
     1     1     3 1   
     2     2     3 1   
     3     3     4 1   
     4     4     5 1   
     5     4     6 1   
     6     4    14 1   
     7     5    15 1   
     8     6     7 1   
     9     6     8 1   
    10     6    16 1   
    11     7    17 1   
    12     8     9 1   
    13     8    10 1   
    14     8    18 1   
    15     9    19 1   
    16    10    11 2   
    17    10    12 1   
    18    12    13 1   
    19    12    20 1   
    20    13    21 1   
@<TRIPOS>SUBSTRUCTURE
     1 XYH         1 TEMP              0 ****  ****    0 ROOT
