@<TRIPOS>MOLECULE
XYH
   21    20     1     0     0
SMALL
bcc


@<TRIPOS>ATOM
      1 O1B         -2.5020     1.9130    -0.7180 o          1 XYH      -0.817800
      2 O1A         -3.6510     0.4340     0.5050 o          1 XYH      -0.817800
      3 C1          -2.6880     0.8010    -0.2050 c          1 XYH       0.907600
      4 C2          -1.6310    -0.3020    -0.4690 c3         1 XYH      -0.035900
      5 OH2         -2.0050    -1.4620     0.2290 oh         1 XYH      -0.641800
      6 C3          -0.2400     0.1660    -0.0290 c3         1 XYH       0.122100
      7 OH3         -0.1420     0.1530     1.3730 oh         1 XYH      -0.602800
      8 C4           0.8940    -0.6390    -0.6830 c3         1 XYH       0.047100
      9 OH4          0.7850    -2.0220    -0.5190 oh         1 XYH      -0.572800
     10 C5           2.2360    -0.1640    -0.1220 c          1 XYH       0.645100
     11 OH5          2.8640    -0.8250     0.6840 o          1 XYH      -0.596100
     12 N6           2.6120     1.0500    -0.5560 ns         1 XYH      -0.446400
     13 OH6          3.8380     1.5420    -0.2210 oh         1 XYH      -0.405100
     14 H21         -1.6130    -0.4820    -1.5540 h1         1 XYH       0.037700
     15 HO2         -2.8570    -1.1870     0.6260 ho         1 XYH       0.440000
     16 H31         -0.1220     1.2020    -0.3600 h1         1 XYH       0.082700
     17 HO3         -0.6130    -0.6350     1.6740 ho         1 XYH       0.419000
     18 H41          0.8560    -0.4390    -1.7600 h1         1 XYH       0.070700
     19 HO4          1.1350    -2.2490     0.3510 ho         1 XYH       0.421000
     20 HN6          2.1850     1.4940    -1.3570 hn         1 XYH       0.337500
     21 HO6          3.6920     2.1470     0.5170 ho         1 XYH       0.405000
@<TRIPOS>BOND
     1     1     3 1   
     2     2     3 1   
     3     3     4 1   
     4     4     5 1   
     5     4     6 1   
     6     4    14 1   
     7     5    15 1   
     8     6     7 1   
     9     6     8 1   
    10     6    16 1   
    11     7    17 1   
    12     8     9 1   
    13     8    10 1   
    14     8    18 1   
    15     9    19 1   
    16    10    11 2   
    17    10    12 1   
    18    12    13 1   
    19    12    20 1   
    20    13    21 1   
@<TRIPOS>SUBSTRUCTURE
     1 XYH         1 TEMP              0 ****  ****    0 ROOT
