@<TRIPOS>MOLECULE
XYI
   76    79     1     0     0
SMALL
No Charge or Current Charge


@<TRIPOS>ATOM
      1 C1          51.0100    29.3640     1.6060 c3         1 XYI      -0.103100
      2 C2          50.6710    29.7950     0.1640 c3         1 XYI       0.163000
      3 C3          51.7780    29.3890    -0.8070 ca         1 XYI      -0.091300
      4 C4          53.0250    30.0430    -0.7740 ca         1 XYI      -0.108000
      5 C11         57.9530    34.0860    -1.5640 c3         1 XYI      -0.104100
      6 C13         56.4770    30.2150    -2.4830 cc         1 XYI       0.250900
      7 C14         53.8040    28.6780    -2.6200 ca         1 XYI      -0.104000
      8 C15         52.5650    28.0010    -2.6650 ca         1 XYI       0.024000
      9 C16         52.3030    26.9310    -3.6390 cc         1 XYI      -0.156000
     10 C21         51.1510    26.1520    -3.8420 cc         1 XYI       0.254900
     11 C10         59.0110    32.4350     0.0830 c3         1 XYI      -0.104100
     12 C17         53.2200    26.5070    -4.5580 cd         1 XYI      -0.155000
     13 C22         51.5570    28.3720    -1.7530 ca         1 XYI      -0.093000
     14 C25         49.4960    33.4640     0.4540 ca         1 XYI      -0.110600
     15 C26         50.7440    34.0520     0.1110 ca         1 XYI      -0.128000
     16 C27         50.8990    35.4370    -0.0230 ca         1 XYI       0.134100
     17 C29         52.4540    37.3140    -0.4440 c3         1 XYI       0.124600
     18 C30         53.9390    37.4960    -0.8740 c3         1 XYI       0.183800
     19 C32         55.0820    35.6960     0.4410 c3         1 XYI       0.166600
     20 C33         54.9910    37.9950     1.3340 c3         1 XYI       0.166600
     21 C34         49.7980    36.2830     0.1900 ca         1 XYI      -0.181000
     22 C35         48.5540    35.7310     0.5290 ca         1 XYI      -0.082000
     23 C36         48.3850    34.3360     0.6630 ca         1 XYI      -0.063300
     24 C37         46.9850    33.8290     1.0090 c3         1 XYI      -0.045800
     25 C5          54.0460    29.7040    -1.6840 ca         1 XYI       0.024000
     26 C6          55.3390    30.4040    -1.6810 cc         1 XYI      -0.156000
     27 C7          55.6280    31.4450    -0.8460 cd         1 XYI      -0.160000
     28 N12         57.4610    31.0490    -2.2190 nd         1 XYI      -0.526800
     29 N18         52.5620    25.4940    -5.2650 na         1 XYI       0.132800
     30 N20         51.2670    25.2720    -4.8160 nd         1 XYI      -0.527800
     31 N23         50.4570    31.2380     0.0670 ns         1 XYI      -0.505900
     32 N31         54.9980    37.1410     0.1250 n3         1 XYI      -0.741600
     33 N8          56.9300    31.8240    -1.1900 na         1 XYI       0.133800
     34 O28         52.1490    35.9080    -0.3630 os         1 XYI      -0.351100
     35 O38         48.4830    31.3650     1.1620 o          1 XYI      -0.582100
     36 H1B         50.1850    29.5920     2.2910 hc         1 XYI       0.044033
     37 H1A         51.1930    28.2840     1.6460 hc         1 XYI       0.044033
     38 H1C         51.9080    29.8780     1.9690 hc         1 XYI       0.044033
     39 H2          49.7380    29.2960    -0.1320 h1         1 XYI       0.075700
     40 H4          53.1880    30.8210    -0.0360 ha         1 XYI       0.101000
     41 H11A        58.4360    34.9300    -1.0570 hc         1 XYI       0.050867
     42 H11B        58.5990    33.7640    -2.3890 hc         1 XYI       0.050867
     43 H11C        57.0060    34.4420    -1.9880 hc         1 XYI       0.050867
     44 H13         56.6180    29.4830    -3.2670 h4         1 XYI       0.035100
     45 H14         54.5880    28.4140    -3.3200 ha         1 XYI       0.109000
     46 H21         50.2160    26.2020    -3.3000 h4         1 XYI       0.037100
     47 H10A        59.5120    33.2560     0.6090 hc         1 XYI       0.050867
     48 H10C        58.8010    31.6420     0.8110 hc         1 XYI       0.050867
     49 H10B        59.7030    32.0360    -0.6700 hc         1 XYI       0.050867
     50 H17         54.2360    26.8110    -4.7750 h4         1 XYI       0.154000
     51 H19C        52.5050    24.8520    -7.2710 h1         1 XYI       0.056033
     52 H19B        54.1450    25.0280    -6.5810 h1         1 XYI       0.056033
     53 H19A        53.1200    23.6430    -6.1030 h1         1 XYI       0.056033
     54 H22         50.5940    27.8700    -1.7740 ha         1 XYI       0.115000
     55 H26         51.6330    33.4460    -0.0390 ha         1 XYI       0.127000
     56 H29B        51.8160    37.7930    -1.1980 h1         1 XYI       0.038200
     57 H29A        52.2770    37.8120     0.5180 h1         1 XYI       0.038200
     58 H30B        54.0940    36.9170    -1.7950 h1         1 XYI       0.061700
     59 H30A        54.0640    38.5490    -1.1590 h1         1 XYI       0.061700
     60 H32B        56.0010    35.4800     1.0020 h1         1 XYI       0.029533
     61 H32A        54.2300    35.3720     1.0520 h1         1 XYI       0.029533
     62 H32C        55.0990    35.0950    -0.4780 h1         1 XYI       0.029533
     63 H33B        55.8750    37.7940     1.9540 h1         1 XYI       0.029533
     64 H33C        55.0060    39.0580     1.0600 h1         1 XYI       0.029533
     65 H33A        54.0980    37.8070     1.9460 h1         1 XYI       0.029533
     66 H34         49.8850    37.3620     0.0940 ha         1 XYI       0.117000
     67 H35         47.7100    36.3990     0.6860 ha         1 XYI       0.113000
     68 H37B        46.6440    33.0780     0.2870 hc         1 XYI       0.048367
     69 H37C        46.9620    33.3820     2.0100 hc         1 XYI       0.048367
     70 H37A        46.2430    34.6360     1.0000 hc         1 XYI       0.048367
     71 H7          55.0570    31.9440    -0.0720 h4         1 XYI       0.150000
     72 H9          57.0770    33.3300     0.2340 h1         1 XYI       0.051700
     73 H23         51.1490    31.7760    -0.4350 hn         1 XYI       0.315500
     74 C19         53.1180    24.7050    -6.3740 c3         1 XYI       0.073900
     75 C24         49.4000    31.9440     0.5960 c          1 XYI       0.612700
     76 C9          57.7020    32.9280    -0.5730 c3         1 XYI       0.106300
@<TRIPOS>BOND
     1     1     2 1   
     2     1    36 1   
     3     1    37 1   
     4     1    38 1   
     5     2     3 1   
     6     2    31 1   
     7     2    39 1   
     8     3     4 ar  
     9     3    13 ar  
    10     4    25 ar  
    11     4    40 1   
    12     5    41 1   
    13     5    42 1   
    14     5    43 1   
    15     5    76 1   
    16     6    26 1   
    17     6    28 2   
    18     6    44 1   
    19     7     8 ar  
    20     7    25 ar  
    21     7    45 1   
    22     8     9 1   
    23     8    13 ar  
    24     9    10 1   
    25     9    12 2   
    26    10    30 2   
    27    10    46 1   
    28    11    47 1   
    29    11    48 1   
    30    11    49 1   
    31    11    76 1   
    32    12    29 1   
    33    12    50 1   
    34    13    54 1   
    35    14    15 ar  
    36    14    23 ar  
    37    14    75 1   
    38    15    16 ar  
    39    15    55 1   
    40    16    21 ar  
    41    16    34 1   
    42    17    18 1   
    43    17    34 1   
    44    17    56 1   
    45    17    57 1   
    46    18    32 1   
    47    18    58 1   
    48    18    59 1   
    49    19    32 1   
    50    19    60 1   
    51    19    61 1   
    52    19    62 1   
    53    20    32 1   
    54    20    63 1   
    55    20    64 1   
    56    20    65 1   
    57    21    22 ar  
    58    21    66 1   
    59    22    23 ar  
    60    22    67 1   
    61    23    24 1   
    62    24    68 1   
    63    24    69 1   
    64    24    70 1   
    65    25    26 1   
    66    26    27 2   
    67    27    33 1   
    68    27    71 1   
    69    28    33 1   
    70    29    30 1   
    71    29    74 1   
    72    31    73 1   
    73    31    75 1   
    74    33    76 1   
    75    35    75 2   
    76    51    74 1   
    77    52    74 1   
    78    53    74 1   
    79    72    76 1   
@<TRIPOS>SUBSTRUCTURE
     1 XYI         1 TEMP              0 ****  ****    0 ROOT
