@<TRIPOS>MOLECULE
XYI
   76    79     1     0     0
SMALL
abcg2


@<TRIPOS>ATOM
      1 C1          51.1660    29.2710     1.8170 c3         1 XYI      -0.103100
      2 C2          50.7170    29.7960     0.4590 c3         1 XYI       0.163000
      3 C3          51.7220    29.4370    -0.6160 ca         1 XYI      -0.091300
      4 C4          52.8790    30.1870    -0.7740 ca         1 XYI      -0.108000
      5 C11         57.4860    34.3700    -1.9040 c3         1 XYI      -0.104100
      6 C13         55.9920    30.6280    -2.9330 cc         1 XYI       0.250900
      7 C14         53.6040    28.7210    -2.5280 ca         1 XYI      -0.104000
      8 C15         52.4440    27.9610    -2.3940 ca         1 XYI       0.024000
      9 C16         52.2050    26.7970    -3.2460 cc         1 XYI      -0.156000
     10 C21         51.3260    25.7170    -3.0260 cc         1 XYI       0.254900
     11 C10         58.9470    32.6120    -0.8250 c3         1 XYI      -0.104100
     12 C17         52.7860    26.4930    -4.4640 cd         1 XYI      -0.155000
     13 C22         51.5070    28.3340    -1.4280 ca         1 XYI      -0.093000
     14 C25         49.9180    33.4110    -0.2430 ca         1 XYI      -0.110600
     15 C26         51.1660    34.0130    -0.2140 ca         1 XYI      -0.128000
     16 C27         51.2910    35.4000    -0.1420 ca         1 XYI       0.134100
     17 C29         52.7540    37.2790    -0.0310 c3         1 XYI       0.124600
     18 C30         54.2470    37.5700    -0.0840 c3         1 XYI       0.183800
     19 C32         55.2880    35.7700     1.2160 c3         1 XYI       0.166600
     20 C33         54.7360    37.8540     2.2750 c3         1 XYI       0.166600
     21 C34         50.1390    36.1730    -0.0680 ca         1 XYI      -0.181000
     22 C35         48.8940    35.5520    -0.0860 ca         1 XYI      -0.082000
     23 C36         48.7440    34.1760    -0.1870 ca         1 XYI      -0.063300
     24 C37         47.3760    33.5570    -0.2130 c3         1 XYI      -0.045800
     25 C5          53.8340    29.8420    -1.7310 ca         1 XYI       0.024000
     26 C6          55.0480    30.6400    -1.8860 cc         1 XYI      -0.156000
     27 C7          55.5420    31.6060    -1.0260 cd         1 XYI      -0.160000
     28 N12         56.9580    31.5030    -2.7290 nd         1 XYI      -0.526800
     29 N18         52.2580    25.3300    -4.8750 na         1 XYI       0.132800
     30 N20         51.3720    24.8420    -4.0120 nd         1 XYI      -0.527800
     31 N23         50.5110    31.2280     0.5450 ns         1 XYI      -0.505900
     32 N31         55.0710    37.1880     1.0400 n3         1 XYI      -0.741600
     33 N8          56.6720    32.0820    -1.5680 na         1 XYI       0.133800
     34 O28         52.5470    35.8820    -0.1510 os         1 XYI      -0.351100
     35 O38         49.2840    31.3940    -1.3410 o          1 XYI      -0.582100
     36 H1B         50.4180    29.4790     2.5830 hc         1 XYI       0.044033
     37 H1A         51.3160    28.1940     1.7720 hc         1 XYI       0.044033
     38 H1C         52.1090    29.7290     2.1210 hc         1 XYI       0.044033
     39 H2          49.7610    29.3280     0.2060 h1         1 XYI       0.075700
     40 H4          53.0310    31.0600    -0.1510 ha         1 XYI       0.101000
     41 H11A        58.0790    35.1630    -1.4500 hc         1 XYI       0.050867
     42 H11B        57.8950    34.1670    -2.8940 hc         1 XYI       0.050867
     43 H11C        56.4660    34.7380    -2.0190 hc         1 XYI       0.050867
     44 H13         55.9920    30.0230    -3.8280 h4         1 XYI       0.035100
     45 H14         54.3510    28.4260    -3.2550 ha         1 XYI       0.109000
     46 H21         50.6760    25.5450    -2.1810 h4         1 XYI       0.037100
     47 H10A        59.5500    33.3780    -0.3370 hc         1 XYI       0.050867
     48 H10C        58.9590    31.7220    -0.1960 hc         1 XYI       0.050867
     49 H10B        59.4180    32.3700    -1.7770 hc         1 XYI       0.050867
     50 H17         53.5120    27.0240    -5.0590 h4         1 XYI       0.154000
     51 H19C        51.6510    24.4640    -6.6730 h1         1 XYI       0.056033
     52 H19B        53.2660    25.1870    -6.6770 h1         1 XYI       0.056033
     53 H19A        52.9950    23.6410    -5.8600 h1         1 XYI       0.056033
     54 H22         50.5870    27.7700    -1.3200 ha         1 XYI       0.115000
     55 H26         52.0670    33.4110    -0.2700 ha         1 XYI       0.127000
     56 H29B        52.2700    37.8090    -0.8600 h1         1 XYI       0.038200
     57 H29A        52.3090    37.6540     0.8980 h1         1 XYI       0.038200
     58 H30B        54.6600    37.1150    -0.9900 h1         1 XYI       0.061700
     59 H30A        54.3400    38.6530    -0.2150 h1         1 XYI       0.061700
     60 H32B        56.1330    35.6150     1.8910 h1         1 XYI       0.029533
     61 H32A        54.4320    35.2240     1.6340 h1         1 XYI       0.029533
     62 H32C        55.5400    35.3090     0.2600 h1         1 XYI       0.029533
     63 H33B        55.5260    37.6850     3.0100 h1         1 XYI       0.029533
     64 H33C        54.6610    38.9310     2.1130 h1         1 XYI       0.029533
     65 H33A        53.7920    37.5190     2.7320 h1         1 XYI       0.029533
     66 H34         50.1820    37.2520     0.0020 ha         1 XYI       0.117000
     67 H35         48.0080    36.1730    -0.0180 ha         1 XYI       0.113000
     68 H37B        47.1210    33.1820    -1.2050 hc         1 XYI       0.048367
     69 H37C        47.2910    32.7170     0.4780 hc         1 XYI       0.048367
     70 H37A        46.6200    34.2890     0.0660 hc         1 XYI       0.048367
     71 H7          55.1770    31.9720    -0.0790 h4         1 XYI       0.150000
     72 H9          57.1020    33.3700    -0.0510 h1         1 XYI       0.051700
     73 H23         50.9600    31.7330     1.2940 hn         1 XYI       0.315500
     74 C19         52.5570    24.6100    -6.0900 c3         1 XYI       0.073900
     75 C24         49.8630    31.9230    -0.4050 c          1 XYI       0.612700
     76 C9          57.5310    33.1290    -1.0250 c3         1 XYI       0.106300
@<TRIPOS>BOND
     1     1     2 1   
     2     1    36 1   
     3     1    37 1   
     4     1    38 1   
     5     2     3 1   
     6     2    31 1   
     7     2    39 1   
     8     3     4 ar  
     9     3    13 ar  
    10     4    25 ar  
    11     4    40 1   
    12     5    41 1   
    13     5    42 1   
    14     5    43 1   
    15     5    76 1   
    16     6    26 1   
    17     6    28 2   
    18     6    44 1   
    19     7     8 ar  
    20     7    25 ar  
    21     7    45 1   
    22     8     9 1   
    23     8    13 ar  
    24     9    10 1   
    25     9    12 2   
    26    10    30 2   
    27    10    46 1   
    28    11    47 1   
    29    11    48 1   
    30    11    49 1   
    31    11    76 1   
    32    12    29 1   
    33    12    50 1   
    34    13    54 1   
    35    14    15 ar  
    36    14    23 ar  
    37    14    75 1   
    38    15    16 ar  
    39    15    55 1   
    40    16    21 ar  
    41    16    34 1   
    42    17    18 1   
    43    17    34 1   
    44    17    56 1   
    45    17    57 1   
    46    18    32 1   
    47    18    58 1   
    48    18    59 1   
    49    19    32 1   
    50    19    60 1   
    51    19    61 1   
    52    19    62 1   
    53    20    32 1   
    54    20    63 1   
    55    20    64 1   
    56    20    65 1   
    57    21    22 ar  
    58    21    66 1   
    59    22    23 ar  
    60    22    67 1   
    61    23    24 1   
    62    24    68 1   
    63    24    69 1   
    64    24    70 1   
    65    25    26 1   
    66    26    27 2   
    67    27    33 1   
    68    27    71 1   
    69    28    33 1   
    70    29    30 1   
    71    29    74 1   
    72    31    73 1   
    73    31    75 1   
    74    33    76 1   
    75    35    75 2   
    76    51    74 1   
    77    52    74 1   
    78    53    74 1   
    79    72    76 1   
@<TRIPOS>SUBSTRUCTURE
     1 XYI         1 TEMP              0 ****  ****    0 ROOT
