@<TRIPOS>MOLECULE
XYJ
   54    56     1     0     0
SMALL
bcc


@<TRIPOS>ATOM
      1 C10         35.6010   -38.0990     8.2160 c          1 XYJ       0.693100
      2 C13         37.6620   -39.6490     6.1110 c3         1 XYJ      -0.209600
      3 C17         41.2030   -39.6030     3.5310 c6         1 XYJ       0.130400
      4 C20         38.6050   -40.0010     2.5640 c6         1 XYJ       0.129300
      5 C02         34.3080   -31.9800     7.7630 c          1 XYJ       0.662000
      6 C03         33.7660   -33.1220     8.4340 cc         1 XYJ       0.172800
      7 C04         33.2270   -32.9860     9.6880 cd         1 XYJ       0.008000
      8 C06         33.0900   -35.0510     8.9920 cd         1 XYJ       0.451800
      9 C08         33.9890   -37.4280    10.0430 c3         1 XYJ      -0.010300
     10 C09         35.3970   -37.2870     9.4720 c3         1 XYJ      -0.156400
     11 C14         37.7740   -40.4100     4.7910 c3         1 XYJ       0.202800
     12 C16         40.1440   -40.3100     4.3550 c6         1 XYJ       0.129300
     13 C19         39.7010   -39.2960     1.7870 c6         1 XYJ       0.130400
     14 C27         33.6690   -30.6770     9.7980 c          1 XYJ       0.845500
     15 N05         32.7940   -34.2090    10.0430 na         1 XYJ      -0.306900
     16 N11         36.2250   -39.3110     8.4150 ns         1 XYJ      -0.660300
     17 N15         38.8250   -39.8240     3.9890 n3         1 XYJ      -0.718600
     18 N24         33.6730   -34.4180     8.0170 nc         1 XYJ      -0.513000
     19 N25         33.1620   -31.8240    10.3800 n          1 XYJ      -0.359000
     20 N28         34.2330   -30.8110     8.5340 n          1 XYJ      -0.517400
     21 O01         34.7910   -31.9650     6.6490 o          1 XYJ      -0.560500
     22 O18         40.9800   -39.7660     2.1490 os         1 XYJ      -0.402600
     23 O21         37.1470   -41.5540     7.8840 o          1 XYJ      -0.593300
     24 O22         35.2640   -40.6850     6.4810 o          1 XYJ      -0.593300
     25 O23         35.2460   -37.7350     7.1200 o          1 XYJ      -0.510100
     26 O30         33.6200   -29.6100    10.3720 o          1 XYJ      -0.622500
     27 S07         32.6580   -36.7400     9.0000 ss         1 XYJ      -0.236400
     28 S12         36.4980   -40.4470     7.2030 s6         1 XYJ       1.231600
     29 H1          38.6040   -39.6070     6.6600 h1         1 XYJ       0.111200
     30 H2          37.3150   -38.6330     5.9290 h1         1 XYJ       0.111200
     31 H3          42.1870   -40.0170     3.7550 h1         1 XYJ       0.051950
     32 H4          41.2160   -38.5370     3.7960 h1         1 XYJ       0.051950
     33 H5          37.6420   -39.5650     2.2900 h1         1 XYJ       0.042700
     34 H6          38.5770   -41.0660     2.2790 h1         1 XYJ       0.042700
     35 H7          32.6320   -30.7930    12.1090 h1         1 XYJ       0.058700
     36 H8          31.4900   -32.0540    11.6270 h1         1 XYJ       0.058700
     37 H9          33.0500   -32.4890    12.3640 h1         1 XYJ       0.058700
     38 H10         33.9470   -36.9530    11.0220 h1         1 XYJ       0.074200
     39 H11         33.7170   -38.4760    10.1800 h1         1 XYJ       0.074200
     40 H12         36.1000   -37.5870    10.2520 hc         1 XYJ       0.074200
     41 H13         35.6060   -36.2420     9.2390 hc         1 XYJ       0.074200
     42 H14         36.8300   -40.3120     4.2540 h1         1 XYJ       0.051700
     43 H15         37.9350   -41.4850     4.9650 h1         1 XYJ       0.051700
     44 H16         40.2250   -41.4010     4.2090 h1         1 XYJ       0.042700
     45 H17         40.3400   -40.1120     5.4110 h1         1 XYJ       0.042700
     46 H18         39.6260   -38.2130     1.9600 h1         1 XYJ       0.051950
     47 H19         39.5760   -39.4750     0.7180 h1         1 XYJ       0.051950
     48 H20         34.7780   -28.7970     8.6200 h1         1 XYJ       0.059033
     49 H21         35.8120   -29.7950     7.5980 h1         1 XYJ       0.059033
     50 H22         34.2000   -29.3280     7.0380 h1         1 XYJ       0.059033
     51 H23         32.3210   -34.4750    10.8960 hn         1 XYJ       0.316700
     52 H24         36.5760   -39.5660     9.3310 hn         1 XYJ       0.343500
     53 C29         34.7860   -29.6130     7.9100 c3         1 XYJ       0.083300
     54 C26         32.5450   -31.7910    11.6970 c3         1 XYJ       0.085300
@<TRIPOS>BOND
     1     1    10 1   
     2     1    16 1   
     3     1    25 2   
     4     2    11 1   
     5     2    28 1   
     6     2    29 1   
     7     2    30 1   
     8     3    12 1   
     9     3    22 1   
    10     3    31 1   
    11     3    32 1   
    12     4    13 1   
    13     4    17 1   
    14     4    33 1   
    15     4    34 1   
    16     5     6 1   
    17     5    20 1   
    18     5    21 2   
    19     6     7 2   
    20     6    18 1   
    21     7    15 1   
    22     7    19 1   
    23     8    15 1   
    24     8    18 2   
    25     8    27 1   
    26     9    10 1   
    27     9    27 1   
    28     9    38 1   
    29     9    39 1   
    30    10    40 1   
    31    10    41 1   
    32    11    17 1   
    33    11    42 1   
    34    11    43 1   
    35    12    17 1   
    36    12    44 1   
    37    12    45 1   
    38    13    22 1   
    39    13    46 1   
    40    13    47 1   
    41    14    19 1   
    42    14    20 1   
    43    14    26 2   
    44    15    51 1   
    45    16    28 1   
    46    16    52 1   
    47    19    54 1   
    48    20    53 1   
    49    23    28 2   
    50    24    28 2   
    51    35    54 1   
    52    36    54 1   
    53    37    54 1   
    54    48    53 1   
    55    49    53 1   
    56    50    53 1   
@<TRIPOS>SUBSTRUCTURE
     1 XYJ         1 TEMP              0 ****  ****    0 ROOT
