@<TRIPOS>MOLECULE
XYJ
   54    56     1     0     0
SMALL
No Charge or Current Charge


@<TRIPOS>ATOM
      1 C10         35.1340   -38.0360     7.7570 c          1 XYJ       0.626100
      2 C13         37.4360   -39.7690     5.8940 c3         1 XYJ      -0.320400
      3 C17         41.4470   -39.3780     3.9390 c6         1 XYJ       0.153600
      4 C20         39.3270   -40.9530     2.7690 c6         1 XYJ       0.129300
      5 C02         32.7170   -31.1300     8.0560 c          1 XYJ       0.519500
      6 C03         32.8470   -32.5470     8.4920 cc         1 XYJ       0.107500
      7 C04         33.5370   -32.8530     9.6280 cd         1 XYJ       0.022600
      8 C06         32.7380   -34.6570     8.6650 cd         1 XYJ       0.451800
      9 C08         33.4370   -37.3130     9.5310 c3         1 XYJ       0.037600
     10 C09         34.9150   -37.2780     9.0700 c3         1 XYJ      -0.156400
     11 C14         37.8990   -40.7040     4.7720 c3         1 XYJ       0.202800
     12 C16         40.2870   -39.9560     4.8040 c6         1 XYJ       0.129300
     13 C19         40.5040   -40.3490     1.9480 c6         1 XYJ       0.153600
     14 C27         34.0530   -30.5390    10.0890 c          1 XYJ       0.636000
     15 N05         33.4580   -34.2260     9.7590 na         1 XYJ      -0.306500
     16 N11         35.6830   -39.2720     7.9010 ns         1 XYJ      -0.593300
     17 N15         39.0350   -40.1520     4.0000 n3         1 XYJ      -0.718600
     18 N24         32.3340   -33.6720     7.8880 nc         1 XYJ      -0.513000
     19 N25         34.1440   -31.9090    10.4320 n          1 XYJ      -0.292000
     20 N28         33.3610   -30.1960     8.9040 n          1 XYJ      -0.383400
     21 O01         32.1030   -30.7880     7.0510 o          1 XYJ      -0.485000
     22 O18         41.6800   -40.2140     2.7810 os         1 XYJ      -0.449000
     23 O21         36.3420   -41.6510     7.3950 o          1 XYJ      -0.522500
     24 O22         34.8630   -40.3870     5.7620 o          1 XYJ      -0.522500
     25 O23         34.8880   -37.5440     6.6680 o          1 XYJ      -0.510100
     26 O30         34.5580   -29.6800    10.8010 o          1 XYJ      -0.547000
     27 S07         32.3150   -36.3540     8.4090 ss         1 XYJ      -0.284300
     28 S12         35.9790   -40.4060     6.7120 s6         1 XYJ       1.200800
     29 H1          38.1980   -39.6640     6.6710 h1         1 XYJ       0.111200
     30 H2          37.1650   -38.7880     5.4930 h1         1 XYJ       0.111200
     31 H3          42.3680   -39.3240     4.5360 h1         1 XYJ       0.051950
     32 H4          41.1940   -38.3600     3.6070 h1         1 XYJ       0.051950
     33 H5          38.4370   -41.0000     2.1240 h1         1 XYJ       0.042700
     34 H6          39.5830   -41.9880     3.0400 h1         1 XYJ       0.042700
     35 H7          35.8260   -31.7540    11.7220 h1         1 XYJ       0.058700
     36 H8          34.2660   -32.0480    12.5430 h1         1 XYJ       0.058700
     37 H9          35.0900   -33.3700    11.6700 h1         1 XYJ       0.058700
     38 H10         33.3480   -36.9170    10.5510 h1         1 XYJ       0.074200
     39 H11         33.0920   -38.3560     9.5550 h1         1 XYJ       0.074200
     40 H12         35.5100   -37.7450     9.8640 hc         1 XYJ       0.074200
     41 H13         35.2320   -36.2380     8.9350 hc         1 XYJ       0.074200
     42 H14         37.0520   -40.8750     4.0920 h1         1 XYJ       0.051700
     43 H15         38.1720   -41.6810     5.1990 h1         1 XYJ       0.051700
     44 H16         40.6150   -40.9130     5.2380 h1         1 XYJ       0.042700
     45 H17         40.1110   -39.2660     5.6400 h1         1 XYJ       0.042700
     46 H18         40.2210   -39.3620     1.5560 h1         1 XYJ       0.051950
     47 H19         40.7400   -41.0010     1.0950 h1         1 XYJ       0.051950
     48 H20         34.2010   -28.2290     8.8260 h1         1 XYJ       0.059033
     49 H21         33.1470   -28.6200     7.4610 h1         1 XYJ       0.059033
     50 H22         32.4320   -28.2910     9.0640 h1         1 XYJ       0.059033
     51 H23         33.8300   -34.7990    10.5020 hn         1 XYJ       0.367000
     52 H24         35.8830   -39.6300     8.8200 hn         1 XYJ       0.343500
     53 C29         33.2790   -28.7530     8.5420 c3         1 XYJ       0.083300
     54 C26         34.8730   -32.2960    11.6640 c3         1 XYJ       0.085300
@<TRIPOS>BOND
     1     1    10 1   
     2     1    16 1   
     3     1    25 2   
     4     2    11 1   
     5     2    28 1   
     6     2    29 1   
     7     2    30 1   
     8     3    12 1   
     9     3    22 1   
    10     3    31 1   
    11     3    32 1   
    12     4    13 1   
    13     4    17 1   
    14     4    33 1   
    15     4    34 1   
    16     5     6 1   
    17     5    20 1   
    18     5    21 2   
    19     6     7 2   
    20     6    18 1   
    21     7    15 1   
    22     7    19 1   
    23     8    15 1   
    24     8    18 2   
    25     8    27 1   
    26     9    10 1   
    27     9    27 1   
    28     9    38 1   
    29     9    39 1   
    30    10    40 1   
    31    10    41 1   
    32    11    17 1   
    33    11    42 1   
    34    11    43 1   
    35    12    17 1   
    36    12    44 1   
    37    12    45 1   
    38    13    22 1   
    39    13    46 1   
    40    13    47 1   
    41    14    19 1   
    42    14    20 1   
    43    14    26 2   
    44    15    51 1   
    45    16    28 1   
    46    16    52 1   
    47    19    54 1   
    48    20    53 1   
    49    23    28 2   
    50    24    28 2   
    51    35    54 1   
    52    36    54 1   
    53    37    54 1   
    54    48    53 1   
    55    49    53 1   
    56    50    53 1   
@<TRIPOS>SUBSTRUCTURE
     1 XYJ         1 TEMP              0 ****  ****    0 ROOT
