@<TRIPOS>MOLECULE
XYK
   37    40     1     0     0
SMALL
abcg2


@<TRIPOS>ATOM
      1 O2           5.2230     2.1540    11.3360 o          1 XYK      -0.718000
      2 C18          5.5150     0.9470    11.1650 c          1 XYK       0.720000
      3 O3           5.1020    -0.0330    11.8280 o          1 XYK      -0.718000
      4 C17          6.4700     0.6530     9.9690 c3         1 XYK      -0.265700
      5 C4           7.1340    -0.6810    10.0360 cc         1 XYK       0.502900
      6 C3           8.1850    -0.9380    10.9890 cc         1 XYK      -0.142900
      7 C2           8.7730    -2.2390    11.0340 cc         1 XYK      -0.166600
      8 C5           9.7590    -2.3510    11.9810 cd         1 XYK      -0.205000
      9 S6           9.9670    -0.8730    12.8100 ss         1 XYK       0.214000
     10 C7           8.7440    -0.0840    11.9110 cd         1 XYK      -0.190000
     11 C1           8.3060    -3.2820    10.1340 c          1 XYK       0.581600
     12 O1           8.7330    -4.4360    10.1070 o          1 XYK      -0.579000
     13 N2           6.7330    -1.6050     9.2240 nd         1 XYK      -0.481300
     14 N1           7.3010    -2.8580     9.2810 n          1 XYK      -0.181800
     15 C9           6.7310    -3.7880     8.3230 c3         1 XYK       0.098700
     16 C10          5.4010    -4.3320     8.7590 cc         1 XYK       0.391200
     17 N3           4.5800    -4.9270     7.9610 nd         1 XYK      -0.557100
     18 S1           4.8950    -4.2220    10.4390 ss         1 XYK       0.153800
     19 C11          3.4430    -5.0740    10.0180 ca         1 XYK      -0.183000
     20 C12          3.4550    -5.3660     8.6380 ca         1 XYK       0.088400
     21 C16          2.3800    -6.0430     8.0620 ca         1 XYK      -0.007000
     22 C13          2.3740    -5.4470    10.8310 ca         1 XYK      -0.066000
     23 C14          1.3150    -6.1180    10.2490 ca         1 XYK      -0.076000
     24 C15          1.3200    -6.4090     8.8750 ca         1 XYK      -0.205300
     25 C19          0.1610    -7.1690     8.3020 c3         1 XYK       0.344300
     26 F3           0.1200    -7.1290     6.9550 f          1 XYK      -0.119000
     27 F1          -1.0280    -6.6990     8.7460 f          1 XYK      -0.119000
     28 F2           0.1950    -8.4830     8.6460 f          1 XYK      -0.119000
     29 H172         7.2190     1.4460     9.9250 hc         1 XYK       0.050700
     30 H171         5.8740     0.7110     9.0570 hc         1 XYK       0.050700
     31 H5          10.3580    -3.2140    12.2230 h4         1 XYK       0.157000
     32 H7           8.5020     0.9480    12.1070 h4         1 XYK       0.178000
     33 H92          7.4290    -4.6140     8.1980 h1         1 XYK       0.088200
     34 H91          6.6100    -3.2810     7.3670 h1         1 XYK       0.088200
     35 H16          2.3870    -6.2660     7.0050 ha         1 XYK       0.140000
     36 H13          2.3680    -5.2190    11.8880 ha         1 XYK       0.132000
     37 H14          0.4730    -6.4180    10.8580 ha         1 XYK       0.121000
@<TRIPOS>BOND
     1     1     2 1   
     2     2     3 1   
     3     2     4 1   
     4     4     5 1   
     5     4    29 1   
     6     4    30 1   
     7     5     6 1   
     8     5    13 2   
     9     6     7 1   
    10     6    10 2   
    11     7     8 2   
    12     7    11 1   
    13     8     9 1   
    14     8    31 1   
    15     9    10 1   
    16    10    32 1   
    17    11    12 2   
    18    11    14 1   
    19    13    14 1   
    20    14    15 1   
    21    15    16 1   
    22    15    33 1   
    23    15    34 1   
    24    16    17 2   
    25    16    18 1   
    26    17    20 1   
    27    18    19 1   
    28    19    20 ar  
    29    19    22 ar  
    30    20    21 ar  
    31    21    24 ar  
    32    21    35 1   
    33    22    23 ar  
    34    22    36 1   
    35    23    24 ar  
    36    23    37 1   
    37    24    25 1   
    38    25    26 1   
    39    25    27 1   
    40    25    28 1   
@<TRIPOS>SUBSTRUCTURE
     1 XYK         1 TEMP              0 ****  ****    0 ROOT
