@<TRIPOS>MOLECULE
XYK
   37    40     1     0     0
SMALL
No Charge or Current Charge


@<TRIPOS>ATOM
      1 O2           6.5050     1.6300    12.2810 o          1 XYK      -0.718000
      2 C18          6.1790     1.4480    11.1200 c          1 XYK       0.720000
      3 O3           5.0210     1.4490    10.7340 o          1 XYK      -0.718000
      4 C17          7.2600     1.0850    10.1220 c3         1 XYK      -0.265700
      5 C4           7.4060    -0.4080    10.0820 cc         1 XYK       0.502900
      6 C3           8.2410    -1.0850    11.0550 cc         1 XYK      -0.142900
      7 C2           8.3960    -2.4850    11.0110 cc         1 XYK      -0.166600
      8 C5           9.2120    -2.9900    11.9940 cd         1 XYK      -0.205000
      9 S6           9.8300    -1.6920    13.0320 ss         1 XYK       0.214000
     10 C7           8.9430    -0.4870    12.0780 cd         1 XYK      -0.190000
     11 C1           7.7090    -3.2740     9.9720 c          1 XYK       0.581600
     12 O1           7.7890    -4.4930     9.8710 o          1 XYK      -0.579000
     13 N2           6.7580    -1.0580     9.1030 nd         1 XYK      -0.481300
     14 N1           6.9320    -2.4610     9.0900 n          1 XYK      -0.181800
     15 C9           6.1800    -3.1370     8.0020 c3         1 XYK       0.098700
     16 C10          4.9460    -3.8540     8.4910 cc         1 XYK       0.391200
     17 N3           4.5930    -5.0660     8.0270 nd         1 XYK      -0.557100
     18 S1           3.8890    -3.0670     9.6880 ss         1 XYK       0.153800
     19 C11          2.8970    -4.5110     9.5620 ca         1 XYK      -0.183000
     20 C12          3.4110    -5.4250     8.6650 ca         1 XYK       0.088400
     21 C16          2.7390    -6.6380     8.4380 ca         1 XYK      -0.007000
     22 C13          1.7080    -4.7530    10.2650 ca         1 XYK      -0.066000
     23 C14          1.0270    -5.9650    10.0460 ca         1 XYK      -0.076000
     24 C15          1.5390    -6.9230     9.1350 ca         1 XYK      -0.205300
     25 C19          0.7960    -8.2390     8.8850 c3         1 XYK       0.344300
     26 F3          -0.0720    -8.1230     7.8550 f          1 XYK      -0.119000
     27 F1           0.0810    -8.6400     9.9610 f          1 XYK      -0.119000
     28 F2           1.6370    -9.2530     8.5810 f          1 XYK      -0.119000
     29 H172         8.2240     1.5080    10.4200 hc         1 XYK       0.050700
     30 H171         6.9570     1.4040     9.1180 hc         1 XYK       0.050700
     31 H5           9.4910    -4.0210    12.1790 h4         1 XYK       0.157000
     32 H7           9.0010     0.5600    12.3510 h4         1 XYK       0.178000
     33 H92          6.8400    -3.8570     7.5040 h1         1 XYK       0.088200
     34 H91          5.8770    -2.4000     7.2480 h1         1 XYK       0.088200
     35 H16          3.1490    -7.3470     7.7230 ha         1 XYK       0.140000
     36 H13          1.3150    -4.0180    10.9650 ha         1 XYK       0.132000
     37 H14          0.1000    -6.1540    10.5830 ha         1 XYK       0.121000
@<TRIPOS>BOND
     1     1     2 1   
     2     2     3 1   
     3     2     4 1   
     4     4     5 1   
     5     4    29 1   
     6     4    30 1   
     7     5     6 1   
     8     5    13 2   
     9     6     7 1   
    10     6    10 2   
    11     7     8 2   
    12     7    11 1   
    13     8     9 1   
    14     8    31 1   
    15     9    10 1   
    16    10    32 1   
    17    11    12 2   
    18    11    14 1   
    19    13    14 1   
    20    14    15 1   
    21    15    16 1   
    22    15    33 1   
    23    15    34 1   
    24    16    17 2   
    25    16    18 1   
    26    17    20 1   
    27    18    19 1   
    28    19    20 ar  
    29    19    22 ar  
    30    20    21 ar  
    31    21    24 ar  
    32    21    35 1   
    33    22    23 ar  
    34    22    36 1   
    35    23    24 ar  
    36    23    37 1   
    37    24    25 1   
    38    25    26 1   
    39    25    27 1   
    40    25    28 1   
@<TRIPOS>SUBSTRUCTURE
     1 XYK         1 TEMP              0 ****  ****    0 ROOT
