@<TRIPOS>MOLECULE
XYL
   22    21     1     0     0
SMALL
No Charge or Current Charge


@<TRIPOS>ATOM
      1 C1          37.1930    33.6810    56.2180 c3         1 XYL       0.144600
      2 C2          35.7420    33.9820    56.7140 c3         1 XYL       0.162800
      3 C3          34.9530    32.6840    57.0990 c3         1 XYL       0.139300
      4 C4          33.4580    32.9880    57.4820 c3         1 XYL       0.162800
      5 C5          32.6040    31.7080    57.7410 c3         1 XYL       0.144600
      6 O1          37.8250    34.8550    55.6670 oh         1 XYL      -0.717500
      7 O2          35.7520    34.8870    57.8370 oh         1 XYL      -0.708500
      8 O3          35.6300    31.9780    58.1680 oh         1 XYL      -0.695000
      9 O4          33.4000    33.8560    58.6420 oh         1 XYL      -0.708500
     10 O5          32.6230    30.8270    56.6040 oh         1 XYL      -0.717500
     11 H11         37.7860    33.2860    57.0550 h1         1 XYL       0.029700
     12 H12         37.1450    32.8930    55.4540 h1         1 XYL       0.029700
     13 H2          35.2010    34.4460    55.8780 h1         1 XYL       0.040200
     14 H3          34.9380    32.0510    56.2000 h1         1 XYL       0.051700
     15 H4          33.0050    33.5060    56.6260 h1         1 XYL       0.040200
     16 H51         32.9850    31.1870    58.6300 h1         1 XYL       0.029700
     17 H52         31.5710    32.0110    57.9570 h1         1 XYL       0.029700
     18 HO1         38.7590    34.6120    55.4660 ho         1 XYL       0.505000
     19 HO2         34.9550    34.5940    58.3630 ho         1 XYL       0.515500
     20 HO3         35.1790    31.1100    58.2730 ho         1 XYL       0.500000
     21 HO4         32.4460    33.9970    58.8570 ho         1 XYL       0.515500
     22 HO5         32.0020    30.0850    56.7990 ho         1 XYL       0.505000
@<TRIPOS>BOND
     1     1     2 1   
     2     1     6 1   
     3     1    11 1   
     4     1    12 1   
     5     2     3 1   
     6     2     7 1   
     7     2    13 1   
     8     3     4 1   
     9     3     8 1   
    10     3    14 1   
    11     4     5 1   
    12     4     9 1   
    13     4    15 1   
    14     5    10 1   
    15     5    16 1   
    16     5    17 1   
    17     6    18 1   
    18     7    19 1   
    19     8    20 1   
    20     9    21 1   
    21    10    22 1   
@<TRIPOS>SUBSTRUCTURE
     1 XYL         1 TEMP              0 ****  ****    0 ROOT
