@<TRIPOS>MOLECULE
XYL
   22    21     1     0     0
SMALL
abcg2


@<TRIPOS>ATOM
      1 C1          37.0780    33.6230    56.2470 c3         1 XYL       0.144600
      2 C2          35.7210    33.9500    56.8450 c3         1 XYL       0.162800
      3 C3          34.9230    32.6690    57.1150 c3         1 XYL       0.139300
      4 C4          33.4540    32.9700    57.4260 c3         1 XYL       0.162800
      5 C5          32.6380    31.7220    57.7430 c3         1 XYL       0.144600
      6 O1          37.6950    34.8230    55.8380 oh         1 XYL      -0.717500
      7 O2          35.9220    34.7320    57.9970 oh         1 XYL      -0.708500
      8 O3          35.5600    31.9450    58.1440 oh         1 XYL      -0.695000
      9 O4          33.3830    33.8580    58.5320 oh         1 XYL      -0.708500
     10 O5          32.7360    30.8280    56.6590 oh         1 XYL      -0.717500
     11 H11         37.6840    33.0870    56.9870 h1         1 XYL       0.029700
     12 H12         36.9230    32.9420    55.4000 h1         1 XYL       0.029700
     13 H2          35.1550    34.5080    56.0780 h1         1 XYL       0.040200
     14 H3          34.9220    32.1010    56.1750 h1         1 XYL       0.051700
     15 H4          33.0360    33.4440    56.5280 h1         1 XYL       0.040200
     16 H51         33.0040    31.2790    58.6790 h1         1 XYL       0.029700
     17 H52         31.5970    32.0250    57.9240 h1         1 XYL       0.029700
     18 HO1         38.5580    34.6030    55.4770 ho         1 XYL       0.505000
     19 HO2         35.0650    34.7890    58.4420 ho         1 XYL       0.515500
     20 HO3         35.3080    31.0210    58.0680 ho         1 XYL       0.500000
     21 HO4         32.5210    34.2860    58.5370 ho         1 XYL       0.515500
     22 HO5         32.2690    30.0200    56.8890 ho         1 XYL       0.505000
@<TRIPOS>BOND
     1     1     2 1   
     2     1     6 1   
     3     1    11 1   
     4     1    12 1   
     5     2     3 1   
     6     2     7 1   
     7     2    13 1   
     8     3     4 1   
     9     3     8 1   
    10     3    14 1   
    11     4     5 1   
    12     4     9 1   
    13     4    15 1   
    14     5    10 1   
    15     5    16 1   
    16     5    17 1   
    17     6    18 1   
    18     7    19 1   
    19     8    20 1   
    20     9    21 1   
    21    10    22 1   
@<TRIPOS>SUBSTRUCTURE
     1 XYL         1 TEMP              0 ****  ****    0 ROOT
