@<TRIPOS>MOLECULE
XYM
   15    14     1     0     0
SMALL
bcc


@<TRIPOS>ATOM
      1 OAA          4.3750    -1.0110     0.0180 o          1 XYM      -0.845300
      2 OAB         -3.1860    -1.7020    -0.0620 o          1 XYM      -0.840800
      3 OAC          3.5710     1.0740    -0.0140 o          1 XYM      -0.845300
      4 OAD         -4.1810     0.3050    -0.0310 o          1 XYM      -0.840800
      5 OAE         -1.9970     1.6240     0.0160 oh         1 XYM      -0.532100
      6 CAF         -0.6700    -0.3100    -0.0170 c2         1 XYM      -0.141400
      7 CAG          2.0340    -0.7390     0.0310 c3         1 XYM      -0.131300
      8 SAH          0.8250     0.6070    -0.0020 ss         1 XYM      -0.271700
      9 CAI          3.4620    -0.1650     0.0100 c          1 XYM       0.941600
     10 CAJ         -3.1890    -0.4630    -0.0380 c          1 XYM       0.904800
     11 CAK         -1.8680     0.2800    -0.0110 ce         1 XYM      -0.031100
     12 HOAE        -2.9660     1.7500     0.0120 ho         1 XYM       0.429000
     13 HAF         -0.6100    -1.3900    -0.0410 h4         1 XYM       0.140000
     14 HAG          1.8930    -1.3490     0.9270 h1         1 XYM       0.032700
     15 HAGA         1.8850    -1.3960    -0.8290 h1         1 XYM       0.032700
@<TRIPOS>BOND
     1     1     9 1   
     2     2    10 1   
     3     3     9 1   
     4     4    10 1   
     5     5    11 1   
     6     5    12 1   
     7     6     8 1   
     8     6    11 2   
     9     6    13 1   
    10     7     8 1   
    11     7     9 1   
    12     7    14 1   
    13     7    15 1   
    14    10    11 1   
@<TRIPOS>SUBSTRUCTURE
     1 XYM         1 TEMP              0 ****  ****    0 ROOT
