@<TRIPOS>MOLECULE
XYM
   15    14     1     0     0
SMALL
No Charge or Current Charge


@<TRIPOS>ATOM
      1 OAA          4.0850    -0.3830     1.1460 o          1 XYM      -0.740000
      2 OAB         -3.1800    -1.6320    -0.5140 o          1 XYM      -0.735500
      3 OAC          4.1240     0.2620    -0.9080 o          1 XYM      -0.740000
      4 OAD         -4.2870     0.1360     0.0190 o          1 XYM      -0.735500
      5 OAE         -2.1130     1.6050     0.5230 oh         1 XYM      -0.571100
      6 CAF         -0.7110    -0.2480    -0.0330 c2         1 XYM      -0.191400
      7 CAG          2.0870    -0.7000    -0.1200 c3         1 XYM      -0.083400
      8 SAH          0.8320     0.6180     0.2690 ss         1 XYM      -0.319600
      9 CAI          3.5510    -0.2280     0.0560 c          1 XYM       0.731000
     10 CAJ         -3.2330    -0.4660    -0.1490 c          1 XYM       0.694200
     11 CAK         -1.9390     0.3070     0.1180 ce         1 XYM      -0.031100
     12 HOAE        -3.0950     1.7160     0.5390 ho         1 XYM       0.468000
     13 HAF         -0.6060    -1.2850    -0.3560 h4         1 XYM       0.190000
     14 HAG          1.9150    -1.5610     0.5380 h1         1 XYM       0.032700
     15 HAGA         1.9480    -1.0280    -1.1580 h1         1 XYM       0.032700
@<TRIPOS>BOND
     1     1     9 1   
     2     2    10 1   
     3     3     9 1   
     4     4    10 1   
     5     5    11 1   
     6     5    12 1   
     7     6     8 1   
     8     6    11 2   
     9     6    13 1   
    10     7     8 1   
    11     7     9 1   
    12     7    14 1   
    13     7    15 1   
    14    10    11 1   
@<TRIPOS>SUBSTRUCTURE
     1 XYM         1 TEMP              0 ****  ****    0 ROOT
