@<TRIPOS>MOLECULE
XYN
   15    14     1     0     0
SMALL
No Charge or Current Charge


@<TRIPOS>ATOM
      1 OBA          4.1520     0.2170    -0.9640 o          1 XYN      -0.737500
      2 OBB         -3.2900    -1.6630    -0.2960 o          1 XYN      -0.715000
      3 OBC         -2.0120     1.5570     0.5770 o          1 XYN      -0.547100
      4 OBD          4.1710    -0.3530     1.1130 o          1 XYN      -0.737500
      5 OBE         -4.4530     0.0850     0.1960 o          1 XYN      -0.715000
      6 CBF          2.1450    -0.7390    -0.0910 c3         1 XYN      -0.079400
      7 CBG         -0.6870    -0.4180     0.0230 c3         1 XYN      -0.073400
      8 SBH          0.8720     0.5710     0.2800 ss         1 XYN      -0.395000
      9 CBI          3.6100    -0.2440     0.0310 c          1 XYN       0.731000
     10 CBJ         -3.3740    -0.4810     0.0300 c          1 XYN       0.646000
     11 CBK         -2.0070     0.3650     0.2500 c          1 XYN       0.439100
     12 HBF          2.0010    -1.5790     0.6000 h1         1 XYN       0.028700
     13 HBFA         1.9850    -1.1080    -1.1120 h1         1 XYN       0.028700
     14 HBG         -0.7010    -0.8060    -1.0030 h1         1 XYN       0.063200
     15 HBGA        -0.6860    -1.2760     0.7070 h1         1 XYN       0.063200
@<TRIPOS>BOND
     1     1     9 1   
     2     2    10 1   
     3     3    11 2   
     4     4     9 1   
     5     5    10 1   
     6     6     8 1   
     7     6     9 1   
     8     6    12 1   
     9     6    13 1   
    10     7     8 1   
    11     7    11 1   
    12     7    14 1   
    13     7    15 1   
    14    10    11 1   
@<TRIPOS>SUBSTRUCTURE
     1 XYN         1 TEMP              0 ****  ****    0 ROOT
