@<TRIPOS>MOLECULE
XYN
   15    14     1     0     0
SMALL
abcg2


@<TRIPOS>ATOM
      1 OBA          3.5560     1.0720    -0.0400 o          1 XYN      -0.737500
      2 OBB         -3.1910    -1.6480     0.0620 o          1 XYN      -0.715000
      3 OBC         -1.8460     1.5460     0.0600 o          1 XYN      -0.547100
      4 OBD          4.4150    -0.9900    -0.0180 o          1 XYN      -0.737500
      5 OBE         -4.2690     0.3120    -0.0600 o          1 XYN      -0.715000
      6 CBF          2.0650    -0.7780     0.0200 c3         1 XYN      -0.079400
      7 CBG         -0.6590    -0.5080     0.0540 c3         1 XYN      -0.073400
      8 SBH          0.8210     0.5330     0.0320 ss         1 XYN      -0.395000
      9 CBI          3.4790    -0.1690    -0.0150 c          1 XYN       0.731000
     10 CBJ         -3.2660    -0.4090     0.0110 c          1 XYN       0.646000
     11 CBK         -1.9020     0.3390     0.0440 c          1 XYN       0.439100
     12 HBF          1.9560    -1.4110     0.9050 h1         1 XYN       0.028700
     13 HBFA         1.9220    -1.4280    -0.8480 h1         1 XYN       0.028700
     14 HBG         -0.6790    -1.1840    -0.8060 h1         1 XYN       0.063200
     15 HBGA        -0.6770    -1.1500     0.9400 h1         1 XYN       0.063200
@<TRIPOS>BOND
     1     1     9 1   
     2     2    10 1   
     3     3    11 2   
     4     4     9 1   
     5     5    10 1   
     6     6     8 1   
     7     6     9 1   
     8     6    12 1   
     9     6    13 1   
    10     7     8 1   
    11     7    11 1   
    12     7    14 1   
    13     7    15 1   
    14    10    11 1   
@<TRIPOS>SUBSTRUCTURE
     1 XYN         1 TEMP              0 ****  ****    0 ROOT
