@<TRIPOS>MOLECULE
XYP
   20    20     1     0     0
SMALL
bcc


@<TRIPOS>ATOM
      1 O1          25.4900    67.6940    19.6260 oh         1 XYP      -0.557800
      2 C1          26.1930    67.9910    20.7730 c6         1 XYP       0.350900
      3 C2          27.6850    67.9960    20.4530 c6         1 XYP       0.129100
      4 C3          28.4640    68.4230    21.6940 c6         1 XYP       0.109100
      5 C4          27.9480    69.7600    22.2020 c6         1 XYP       0.077100
      6 C5          26.4400    69.6510    22.4130 c6         1 XYP       0.112400
      7 O2          28.0490    66.7080    20.0330 oh         1 XYP      -0.581800
      8 O3          29.8250    68.4600    21.3370 oh         1 XYP      -0.600800
      9 O4          28.6190    70.0550    23.4040 oh         1 XYP      -0.599800
     10 O5          25.7970    69.2670    21.2180 os         1 XYP      -0.434600
     11 HO1         24.5950    67.4280    19.8610 ho         1 XYP       0.418000
     12 H1          26.0010    67.2520    21.5720 h2         1 XYP       0.026700
     13 H2          27.8590    68.7420    19.6600 h1         1 XYP       0.068700
     14 H3          28.2870    67.6710    22.4820 h1         1 XYP       0.049700
     15 H4          28.1460    70.5260    21.4370 h1         1 XYP       0.060700
     16 H51         26.2370    68.9350    23.2220 h1         1 XYP       0.054700
     17 H52         26.0200    70.6140    22.7090 h1         1 XYP       0.054700
     18 HO2         29.0090    66.6800    19.9640 ho         1 XYP       0.424000
     19 HO3         30.3510    68.5360    22.1400 ho         1 XYP       0.425000
     20 HO4         28.4620    70.9780    23.6280 ho         1 XYP       0.414000
@<TRIPOS>BOND
     1     1     2 1   
     2     1    11 1   
     3     2     3 1   
     4     2    10 1   
     5     2    12 1   
     6     3     4 1   
     7     3     7 1   
     8     3    13 1   
     9     4     5 1   
    10     4     8 1   
    11     4    14 1   
    12     5     6 1   
    13     5     9 1   
    14     5    15 1   
    15     6    10 1   
    16     6    16 1   
    17     6    17 1   
    18     7    18 1   
    19     8    19 1   
    20     9    20 1   
@<TRIPOS>SUBSTRUCTURE
     1 XYP         1 TEMP              0 ****  ****    0 ROOT
