@<TRIPOS>MOLECULE
XYP
   20    20     1     0     0
SMALL
No Charge or Current Charge


@<TRIPOS>ATOM
      1 O1          25.3230    67.6010    19.6850 oh         1 XYP      -0.680000
      2 C1          26.1550    67.8360    20.8040 c6         1 XYP       0.397300
      3 C2          27.6800    67.8760    20.4190 c6         1 XYP       0.152300
      4 C3          28.4910    68.3380    21.6640 c6         1 XYP       0.132300
      5 C4          27.9500    69.7010    22.1850 c6         1 XYP       0.100300
      6 C5          26.4250    69.5630    22.4720 c6         1 XYP       0.135600
      7 O2          28.1990    66.6070    19.9560 oh         1 XYP      -0.704000
      8 O3          29.8940    68.4420    21.3600 oh         1 XYP      -0.723000
      9 O4          28.6850    70.1040    23.3610 oh         1 XYP      -0.722000
     10 O5          25.7320    69.1190    21.2800 os         1 XYP      -0.481000
     11 HO1         24.6720    68.3320    19.7510 ho         1 XYP       0.517000
     12 H1          25.9750    67.0730    21.5770 h2         1 XYP       0.026700
     13 H2          27.8040    68.6360    19.6320 h1         1 XYP       0.068700
     14 H3          28.3420    67.5930    22.4610 h1         1 XYP       0.049700
     15 H4          28.0760    70.4520    21.3890 h1         1 XYP       0.060700
     16 H51         26.2490    68.8430    23.2850 h1         1 XYP       0.054700
     17 H52         26.0100    70.5340    22.7780 h1         1 XYP       0.054700
     18 HO2         29.1760    66.6820    20.0910 ho         1 XYP       0.523000
     19 HO3         30.2560    69.0200    22.0770 ho         1 XYP       0.524000
     20 HO4         28.3840    71.0130    23.6020 ho         1 XYP       0.513000
@<TRIPOS>BOND
     1     1     2 1   
     2     1    11 1   
     3     2     3 1   
     4     2    10 1   
     5     2    12 1   
     6     3     4 1   
     7     3     7 1   
     8     3    13 1   
     9     4     5 1   
    10     4     8 1   
    11     4    14 1   
    12     5     6 1   
    13     5     9 1   
    14     5    15 1   
    15     6    10 1   
    16     6    16 1   
    17     6    17 1   
    18     7    18 1   
    19     8    19 1   
    20     9    20 1   
@<TRIPOS>SUBSTRUCTURE
     1 XYP         1 TEMP              0 ****  ****    0 ROOT
