@<TRIPOS>MOLECULE
XYQ
   62    65     1     0     0
SMALL
No Charge or Current Charge


@<TRIPOS>ATOM
      1 O5          -3.6840     3.6350    -1.9580 o          1 XYQ      -0.448000
      2 CH          -4.9070     3.5890    -1.9940 c          1 XYQ       0.603100
      3 CH3         -5.7820     4.8110    -2.2380 c3         1 XYQ      -0.157100
      4 OH          -5.6690     2.4570    -1.8460 os         1 XYQ      -0.481100
      5 C1N         -4.9030     1.2670    -1.5610 c5         1 XYQ       0.358300
      6 C2N         -5.8690     0.0450    -1.6550 c5         1 XYQ       0.098300
      7 C3N         -5.0330    -1.0020    -0.8430 c5         1 XYQ       0.132300
      8 O3N         -5.9350    -1.8840    -0.1740 oh         1 XYQ      -0.672000
      9 O2N         -7.1400     0.2930    -1.0090 oh         1 XYQ      -0.683000
     10 O4N         -4.5380     1.2580    -0.1780 os         1 XYQ      -0.412000
     11 C4N         -4.1670    -0.1110     0.1320 c5         1 XYQ       0.169300
     12 C5N         -2.6330    -0.3290    -0.0700 c3         1 XYQ       0.227600
     13 O5N         -1.8610     0.5870     0.7240 os         1 XYQ      -0.561400
     14 PN          -1.5480     0.2930     2.2800 p5         1 XYQ       1.458800
     15 ON2         -2.7660    -0.2170     2.9770 o          1 XYQ      -0.848500
     16 ON1         -1.0080     1.5360     2.9050 o          1 XYQ      -0.848500
     17 ON3         -0.4710    -0.8270     2.0230 os         1 XYQ      -0.682800
     18 PA           0.4730    -1.1010     3.2530 p5         1 XYQ       1.459800
     19 OA2          1.6350    -0.1670     3.3510 o          1 XYQ      -0.852500
     20 O5A          0.9700    -2.5710     2.8020 os         1 XYQ      -0.556400
     21 C5A          2.0250    -2.7880     1.8480 c3         1 XYQ       0.216600
     22 C4A          1.6040    -2.3680     0.3990 c5         1 XYQ       0.156300
     23 O4A          2.1080    -1.0360     0.1030 os         1 XYQ      -0.409000
     24 C1A          3.3100    -1.1290    -0.7020 c5         1 XYQ       0.324300
     25 N9           4.3290    -0.2080    -0.1870 na         1 XYQ      -0.292300
     26 C8           5.6420    -0.5460     0.1690 cc         1 XYQ       0.466700
     27 N7           6.3340     0.5390     0.5800 nd         1 XYQ      -0.569100
     28 C5           5.4080     1.5790     0.4550 ca         1 XYQ      -0.081600
     29 C4           4.1920     1.1420    -0.0120 ca         1 XYQ       0.104500
     30 N3           3.1580     1.9840    -0.2170 nb         1 XYQ      -0.208000
     31 C2           3.3910     3.2850     0.0780 ca         1 XYQ       0.143900
     32 N1           4.5470     3.8170     0.5470 nb         1 XYQ      -0.329000
     33 C6           5.5590     2.9550     0.7310 ca         1 XYQ       0.433900
     34 N6           6.7180     3.4920     1.1990 nv         1 XYQ      -1.081900
     35 C2A          3.6650    -2.6580    -0.7470 c5         1 XYQ       0.067300
     36 C3A          2.2370    -3.2680    -0.7160 c5         1 XYQ       0.097300
     37 O3A          1.5890    -3.1350    -1.9900 oh         1 XYQ      -0.713000
     38 O2A          4.4050    -3.0580    -1.9180 oh         1 XYQ      -0.706000
     39 OA1         -0.2500    -1.2360     4.5530 o          1 XYQ      -0.852500
     40 HH31        -5.1960     5.7260    -2.3850 hc         1 XYQ       0.059700
     41 HH32        -6.4460     4.6100    -3.0860 hc         1 XYQ       0.059700
     42 HH33        -6.4900     4.9100    -1.4070 hc         1 XYQ       0.059700
     43 H1N         -4.0320     1.1550    -2.2220 h2         1 XYQ       0.058700
     44 H2N         -6.0190    -0.2720    -2.6960 h1         1 XYQ       0.022700
     45 H3N         -4.3820    -1.5730    -1.5190 h1         1 XYQ       0.039700
     46 HO3N        -6.7870    -1.3770    -0.2100 ho         1 XYQ       0.485000
     47 HO2N        -7.2540     1.2740    -1.0470 ho         1 XYQ       0.497000
     48 H4N         -4.4310    -0.3150     1.1750 h1         1 XYQ       0.091700
     49 H5N1        -2.3890    -1.3680     0.1890 h1         1 XYQ       0.021700
     50 H5N2        -2.3890    -0.1940    -1.1320 h1         1 XYQ       0.021700
     51 H5A1         2.9360    -2.2500     2.1430 h1         1 XYQ       0.011200
     52 H5A2         2.2740    -3.8570     1.8420 h1         1 XYQ       0.011200
     53 H4A          0.5100    -2.3820     0.3250 h1         1 XYQ       0.096700
     54 H1A          3.0790    -0.7810    -1.7170 h2         1 XYQ       0.093700
     55 H8           6.0300    -1.5570     0.1040 h5         1 XYQ       0.160800
     56 H2           2.5640     3.9760    -0.0780 h5         1 XYQ       0.021100
     57 HN61         7.4130     2.8390     1.5540 hn         1 XYQ       0.498000
     58 HN62         6.6790     4.4050     1.6450 hn         1 XYQ       0.498000
     59 H2A          4.2120    -2.9470     0.1620 h1         1 XYQ       0.072700
     60 H3A          2.2590    -4.3240    -0.4130 h1         1 XYQ       0.050700
     61 HO3A         2.3190    -3.1820    -2.6530 ho         1 XYQ       0.501000
     62 HO2A         4.7470    -3.9720    -1.7640 ho         1 XYQ       0.498000
@<TRIPOS>BOND
     1     1     2 2   
     2     2     3 1   
     3     2     4 1   
     4     3    40 1   
     5     3    41 1   
     6     3    42 1   
     7     4     5 1   
     8     5     6 1   
     9     5    10 1   
    10     5    43 1   
    11     6     7 1   
    12     6     9 1   
    13     6    44 1   
    14     7     8 1   
    15     7    11 1   
    16     7    45 1   
    17     8    46 1   
    18     9    47 1   
    19    10    11 1   
    20    11    12 1   
    21    11    48 1   
    22    12    13 1   
    23    12    49 1   
    24    12    50 1   
    25    13    14 1   
    26    14    15 1   
    27    14    16 1   
    28    14    17 1   
    29    17    18 1   
    30    18    19 1   
    31    18    20 1   
    32    18    39 1   
    33    20    21 1   
    34    21    22 1   
    35    21    51 1   
    36    21    52 1   
    37    22    23 1   
    38    22    36 1   
    39    22    53 1   
    40    23    24 1   
    41    24    25 1   
    42    24    35 1   
    43    24    54 1   
    44    25    26 1   
    45    25    29 1   
    46    26    27 2   
    47    26    55 1   
    48    27    28 1   
    49    28    29 ar  
    50    28    33 ar  
    51    29    30 ar  
    52    30    31 ar  
    53    31    32 ar  
    54    31    56 1   
    55    32    33 ar  
    56    33    34 1   
    57    34    57 1   
    58    34    58 1   
    59    35    36 1   
    60    35    38 1   
    61    35    59 1   
    62    36    37 1   
    63    36    60 1   
    64    37    61 1   
    65    38    62 1   
@<TRIPOS>SUBSTRUCTURE
     1 XYQ         1 TEMP              0 ****  ****    0 ROOT
