@<TRIPOS>MOLECULE
XYQ
   62    65     1     0     0
SMALL
bcc


@<TRIPOS>ATOM
      1 O5          -6.1590    -0.0130    -2.8500 o          1 XYQ      -0.497000
      2 CH          -6.1220     1.1860    -2.7670 c          1 XYQ       0.652100
      3 CH3         -6.0120     2.1400    -3.9150 c3         1 XYQ      -0.157100
      4 OH          -6.1820     1.8440    -1.5990 os         1 XYQ      -0.457900
      5 C1N         -6.3230     1.0990    -0.4090 c5         1 XYQ       0.311900
      6 C2N         -6.7060     2.0540     0.7260 c5         1 XYQ       0.075100
      7 C3N         -6.0510     1.3350     1.9050 c5         1 XYQ       0.109100
      8 O3N         -5.7930     2.1160     3.0290 oh         1 XYQ      -0.549800
      9 O2N         -6.1090     3.3130     0.6060 oh         1 XYQ      -0.560800
     10 O4N         -5.1030     0.5120    -0.0590 os         1 XYQ      -0.365600
     11 C4N         -4.7460     0.8440     1.2790 c5         1 XYQ       0.146100
     12 C5N         -4.1800    -0.3640     1.9820 c3         1 XYQ       0.204400
     13 O5N         -2.9340    -0.6970     1.4090 os         1 XYQ      -0.538200
     14 PN          -2.2960    -2.1590     1.8210 p5         1 XYQ       1.458800
     15 ON2         -3.0520    -3.2450     1.1250 o          1 XYQ      -0.848500
     16 ON1         -2.0780    -2.2090     3.3010 o          1 XYQ      -0.848500
     17 ON3         -0.8810    -1.8650     1.0370 os         1 XYQ      -0.682800
     18 PA           0.5140    -2.6590     1.3590 p5         1 XYQ       1.459800
     19 OA2          1.4130    -1.7870     2.1830 o          1 XYQ      -0.852500
     20 O5A          1.0220    -2.6340    -0.2060 os         1 XYQ      -0.533200
     21 C5A          2.2970    -3.1620    -0.4780 c3         1 XYQ       0.193400
     22 C4A          2.8760    -2.4550    -1.6900 c5         1 XYQ       0.133100
     23 O4A          2.8980    -1.0380    -1.4920 os         1 XYQ      -0.362600
     24 C1A          4.2080    -0.5790    -1.3360 c5         1 XYQ       0.271800
     25 N9           4.2510     0.3770    -0.2540 na         1 XYQ      -0.263000
     26 C8           3.6070     0.3000     0.9540 cc         1 XYQ       0.466700
     27 N7           3.8770     1.3050     1.7370 nd         1 XYQ      -0.569100
     28 C5           4.7440     2.0830     1.0160 ca         1 XYQ      -0.212200
     29 C4           4.9890     1.5240    -0.2280 ca         1 XYQ       0.432800
     30 N3           5.7740     2.0260    -1.1790 nb         1 XYQ      -0.734000
     31 C2           6.3290     3.1650    -0.8050 ca         1 XYQ       0.669900
     32 N1           6.1930     3.8130     0.3500 nb         1 XYQ      -0.855000
     33 C6           5.3990     3.2970     1.2950 ca         1 XYQ       0.762200
     34 N6           5.2590     3.9410     2.4550 nv         1 XYQ      -0.971500
     35 C2A          5.0640    -1.8230    -1.0960 c5         1 XYQ       0.044100
     36 C3A          4.3210    -2.8610    -1.9420 c5         1 XYQ       0.074100
     37 O3A          4.6110    -2.7000    -3.3050 oh         1 XYQ      -0.590800
     38 O2A          6.3820    -1.5780    -1.4850 oh         1 XYQ      -0.583800
     39 OA1          0.2440    -4.0680     1.7820 o          1 XYQ      -0.852500
     40 HH31        -5.9550     1.5990    -4.8550 hc         1 XYQ       0.059700
     41 HH32        -6.8750     2.8060    -3.9370 hc         1 XYQ       0.059700
     42 HH33        -5.1240     2.7630    -3.8070 hc         1 XYQ       0.059700
     43 H1N         -7.0840     0.3260    -0.5490 h2         1 XYQ       0.058700
     44 H2N         -7.7960     2.1230     0.8260 h1         1 XYQ       0.022700
     45 H3N         -6.6730     0.4620     2.1550 h1         1 XYQ       0.039700
     46 HO3N        -6.6120     2.2330     3.5180 ho         1 XYQ       0.386000
     47 HO2N        -6.4780     3.7600    -0.1640 ho         1 XYQ       0.398000
     48 H4N         -4.0040     1.6530     1.2840 h1         1 XYQ       0.091700
     49 H5N1        -4.0710    -0.1230     3.0450 h1         1 XYQ       0.021700
     50 H5N2        -4.8970    -1.1910     1.9040 h1         1 XYQ       0.021700
     51 H5A1         2.9740    -3.0550     0.3800 h1         1 XYQ       0.011200
     52 H5A2         2.2380    -4.2330    -0.7040 h1         1 XYQ       0.011200
     53 H4A          2.2500    -2.6640    -2.5620 h1         1 XYQ       0.096700
     54 H1A          4.5610    -0.0490    -2.2270 h2         1 XYQ       0.093700
     55 H8           2.9270    -0.5070     1.2040 h5         1 XYQ       0.160800
     56 H2           6.9840     3.6390    -1.5290 h5         1 XYQ       0.021100
     57 HN61         4.6560     3.5870     3.1770 hn         1 XYQ       0.442800
     58 HN62         5.7320     4.8140     2.6120 hn         1 XYQ       0.442800
     59 H2A          5.0020    -2.1090    -0.0390 h1         1 XYQ       0.072700
     60 H3A          4.5210    -3.8860    -1.6010 h1         1 XYQ       0.050700
     61 HO3A         5.5680    -2.6170    -3.3960 ho         1 XYQ       0.402000
     62 HO2A         6.9530    -2.2400    -1.0830 ho         1 XYQ       0.399000
@<TRIPOS>BOND
     1     1     2 2   
     2     2     3 1   
     3     2     4 1   
     4     3    40 1   
     5     3    41 1   
     6     3    42 1   
     7     4     5 1   
     8     5     6 1   
     9     5    10 1   
    10     5    43 1   
    11     6     7 1   
    12     6     9 1   
    13     6    44 1   
    14     7     8 1   
    15     7    11 1   
    16     7    45 1   
    17     8    46 1   
    18     9    47 1   
    19    10    11 1   
    20    11    12 1   
    21    11    48 1   
    22    12    13 1   
    23    12    49 1   
    24    12    50 1   
    25    13    14 1   
    26    14    15 1   
    27    14    16 1   
    28    14    17 1   
    29    17    18 1   
    30    18    19 1   
    31    18    20 1   
    32    18    39 1   
    33    20    21 1   
    34    21    22 1   
    35    21    51 1   
    36    21    52 1   
    37    22    23 1   
    38    22    36 1   
    39    22    53 1   
    40    23    24 1   
    41    24    25 1   
    42    24    35 1   
    43    24    54 1   
    44    25    26 1   
    45    25    29 1   
    46    26    27 2   
    47    26    55 1   
    48    27    28 1   
    49    28    29 ar  
    50    28    33 ar  
    51    29    30 ar  
    52    30    31 ar  
    53    31    32 ar  
    54    31    56 1   
    55    32    33 ar  
    56    33    34 1   
    57    34    57 1   
    58    34    58 1   
    59    35    36 1   
    60    35    38 1   
    61    35    59 1   
    62    36    37 1   
    63    36    60 1   
    64    37    61 1   
    65    38    62 1   
@<TRIPOS>SUBSTRUCTURE
     1 XYQ         1 TEMP              0 ****  ****    0 ROOT
