@<TRIPOS>MOLECULE
XYR
   70    73     1     0     0
SMALL
abcg2


@<TRIPOS>ATOM
      1 C1          47.3480    33.2610     0.3330 c3         1 XYR      -0.043800
      2 C2          48.6520    34.0040     0.3990 ca         1 XYR      -0.062300
      3 C3          49.8940    33.3780     0.2840 ca         1 XYR      -0.110600
      4 C4          49.9850    31.9030     0.0350 c          1 XYR       0.610700
      5 C6          50.9970    29.8000     0.7820 c3         1 XYR       0.164000
      6 C9          53.1890    30.0030    -0.4500 ca         1 XYR      -0.100000
      7 C10         54.0560    29.6460    -1.4820 ca         1 XYR       0.003000
      8 C11         55.4160    30.1840    -1.5420 cc         1 XYR      -0.125000
      9 C12         55.9370    31.2640    -0.8710 cd         1 XYR      -0.145000
     10 N17         57.6040    30.3940    -2.0870 nd         1 XYR      -0.481800
     11 C20         52.3420    28.1820    -2.3880 ca         1 XYR       0.024000
     12 C18         56.5170    29.6890    -2.2860 cc         1 XYR       0.261900
     13 C19         53.6190    28.7350    -2.4430 ca         1 XYR      -0.098000
     14 C21         51.8840    27.2400    -3.4060 cc         1 XYR      -0.161000
     15 C22         52.3770    27.0540    -4.6850 cd         1 XYR      -0.153000
     16 C26         50.8290    26.3080    -3.3250 cc         1 XYR       0.257900
     17 C27         51.4990    28.5530    -1.3390 ca         1 XYR      -0.079000
     18 C29         51.0840    34.1020     0.3530 ca         1 XYR      -0.185000
     19 C30         51.0580    35.4820     0.5290 ca         1 XYR       0.134100
     20 C33         54.4590    36.7900     0.4040 c3         1 XYR       0.168800
     21 C35         54.3490    37.4340    -1.9180 c3         1 XYR       0.149600
     22 C36         55.0800    38.9930    -0.2690 c3         1 XYR       0.149600
     23 C37         49.8250    36.1190     0.6570 ca         1 XYR      -0.125000
     24 C38         48.6560    35.3850     0.6000 ca         1 XYR      -0.085000
     25 C7          51.5470    29.2730     2.1030 c3         1 XYR      -0.104100
     26 C8          51.9150    29.4550    -0.3720 ca         1 XYR      -0.090300
     27 F15         58.7570    32.9340    -1.7990 f          1 XYR      -0.097500
     28 F16         59.1910    31.6540    -0.1150 f          1 XYR      -0.097500
     29 N13         57.2390    31.3500    -1.2280 na         1 XYR       0.030800
     30 N23         51.6410    26.0880    -5.2560 na         1 XYR       0.133800
     31 N25         50.6970    25.6220    -4.4430 nd         1 XYR      -0.524800
     32 N34         54.2220    37.8610    -0.5420 n3         1 XYR      -0.701600
     33 N5          50.7750    31.2300     0.8900 ns         1 XYR      -0.509900
     34 O28         49.3860    31.3620    -0.8810 o          1 XYR      -0.586100
     35 O31         52.1500    36.2650     0.5900 os         1 XYR      -0.324100
     36 H1B         47.3550    32.3590     0.9440 hc         1 XYR       0.048033
     37 H1A         46.5340    33.8930     0.6880 hc         1 XYR       0.048033
     38 H1C         47.1070    32.9580    -0.6860 hc         1 XYR       0.048033
     39 H6          50.0310    29.3240     0.5990 h1         1 XYR       0.071700
     40 H9          53.5150    30.7010     0.3140 ha         1 XYR       0.101000
     41 H12         55.4900    31.9700    -0.1880 h4         1 XYR       0.153000
     42 H14         57.7090    33.0040    -0.0910 h3         1 XYR       0.075700
     43 H18         56.5450    28.8360    -2.9460 h4         1 XYR       0.044100
     44 H19         54.2840    28.4460    -3.2480 ha         1 XYR       0.110000
     45 H22         53.1750    27.5440    -5.2200 h4         1 XYR       0.154000
     46 H24C        51.9190    24.4930    -6.5710 h1         1 XYR       0.056700
     47 H24B        50.8640    25.7860    -7.1720 h1         1 XYR       0.056700
     48 H24A        52.6140    26.0380    -7.0820 h1         1 XYR       0.056700
     49 H26         50.1770    26.1080    -2.4870 h4         1 XYR       0.039100
     50 H27         50.4970    28.1440    -1.2800 ha         1 XYR       0.121000
     51 H29         52.0240    33.5740     0.2500 ha         1 XYR       0.114000
     52 H32B        53.6650    34.9520     1.1350 h1         1 XYR       0.030200
     53 H32A        53.4360    35.1600    -0.6000 h1         1 XYR       0.030200
     54 H33B        54.4680    37.2190     1.4100 h1         1 XYR       0.037700
     55 H33A        55.4440    36.3130     0.2620 h1         1 XYR       0.037700
     56 H35A        54.1520    38.2750    -2.5830 h1         1 XYR       0.031867
     57 H35C        55.3490    37.0410    -2.1600 h1         1 XYR       0.031867
     58 H35B        53.6200    36.6590    -2.1610 h1         1 XYR       0.031867
     59 H36A        54.8400    39.8130    -0.9470 h1         1 XYR       0.031867
     60 H36B        54.9210    39.3480     0.7500 h1         1 XYR       0.031867
     61 H36C        56.1530    38.7700    -0.3830 h1         1 XYR       0.031867
     62 H37         49.7890    37.1920     0.8030 ha         1 XYR       0.132000
     63 H38         47.7110    35.9020     0.7130 ha         1 XYR       0.117000
     64 H7C         51.7010    28.1980     2.0390 hc         1 XYR       0.044700
     65 H7B         52.5040    29.7360     2.3490 hc         1 XYR       0.044700
     66 H7A         50.8490    29.4700     2.9170 hc         1 XYR       0.044700
     67 H5          51.2030    31.7280     1.6560 hn         1 XYR       0.316500
     68 C14         58.1900    32.2910    -0.7590 c3         1 XYR       0.342300
     69 C24         51.7620    25.5690    -6.5970 c3         1 XYR       0.072900
     70 C32         53.4230    35.6880     0.3600 c3         1 XYR       0.165600
@<TRIPOS>BOND
     1     1     2 1   
     2     1    36 1   
     3     1    37 1   
     4     1    38 1   
     5     2     3 ar  
     6     2    24 ar  
     7     3     4 1   
     8     3    18 ar  
     9     4    33 1   
    10     4    34 2   
    11     5    25 1   
    12     5    26 1   
    13     5    33 1   
    14     5    39 1   
    15     6     7 ar  
    16     6    26 ar  
    17     6    40 1   
    18     7     8 1   
    19     7    13 ar  
    20     8     9 2   
    21     8    12 1   
    22     9    29 1   
    23     9    41 1   
    24    10    12 2   
    25    10    29 1   
    26    11    13 ar  
    27    11    14 1   
    28    11    17 ar  
    29    12    43 1   
    30    13    44 1   
    31    14    15 2   
    32    14    16 1   
    33    15    30 1   
    34    15    45 1   
    35    16    31 2   
    36    16    49 1   
    37    17    26 ar  
    38    17    50 1   
    39    18    19 ar  
    40    18    51 1   
    41    19    23 ar  
    42    19    35 1   
    43    20    32 1   
    44    20    54 1   
    45    20    55 1   
    46    20    70 1   
    47    21    32 1   
    48    21    56 1   
    49    21    57 1   
    50    21    58 1   
    51    22    32 1   
    52    22    59 1   
    53    22    60 1   
    54    22    61 1   
    55    23    24 ar  
    56    23    62 1   
    57    24    63 1   
    58    25    64 1   
    59    25    65 1   
    60    25    66 1   
    61    27    68 1   
    62    28    68 1   
    63    29    68 1   
    64    30    31 1   
    65    30    69 1   
    66    33    67 1   
    67    35    70 1   
    68    42    68 1   
    69    46    69 1   
    70    47    69 1   
    71    48    69 1   
    72    52    70 1   
    73    53    70 1   
@<TRIPOS>SUBSTRUCTURE
     1 XYR         1 TEMP              0 ****  ****    0 ROOT
