@<TRIPOS>MOLECULE
XYR
   70    73     1     0     0
SMALL
No Charge or Current Charge


@<TRIPOS>ATOM
      1 C1          46.9810    33.4600     0.8610 c3         1 XYR      -0.043800
      2 C2          48.3940    34.0050     0.6630 ca         1 XYR      -0.062300
      3 C3          49.5400    33.1610     0.6500 ca         1 XYR      -0.110600
      4 C4          49.4450    31.6440     0.7510 c          1 XYR       0.610700
      5 C6          50.9280    29.6370     1.0730 c3         1 XYR       0.164000
      6 C9          53.0640    30.2990    -0.1540 ca         1 XYR      -0.100000
      7 C10         53.9100    30.2730    -1.2800 ca         1 XYR       0.003000
      8 C11         55.1390    31.0810    -1.3420 cc         1 XYR      -0.125000
      9 C12         55.5840    31.8570    -0.3090 cd         1 XYR      -0.145000
     10 N17         57.0850    32.0180    -2.0800 nd         1 XYR      -0.481800
     11 C20         52.3760    28.6790    -2.3590 ca         1 XYR       0.024000
     12 C18         56.0810    31.2180    -2.3750 cc         1 XYR       0.261900
     13 C19         53.5550    29.4560    -2.3730 ca         1 XYR      -0.098000
     14 C21         51.9980    27.8250    -3.4950 cc         1 XYR      -0.161000
     15 C22         52.7430    27.7100    -4.6330 cd         1 XYR      -0.153000
     16 C26         50.8780    26.9930    -3.6700 cc         1 XYR       0.257900
     17 C27         51.5420    28.7360    -1.2250 ca         1 XYR      -0.079000
     18 C29         50.8190    33.7560     0.4900 ca         1 XYR      -0.185000
     19 C30         50.9650    35.1490     0.3360 ca         1 XYR       0.134100
     20 C33         54.6210    35.9560    -0.0650 c3         1 XYR       0.168800
     21 C35         54.8480    35.4300    -2.4910 c3         1 XYR       0.149600
     22 C36         55.7640    37.5210    -1.5890 c3         1 XYR       0.149600
     23 C37         49.8270    35.9640     0.3490 ca         1 XYR      -0.125000
     24 C38         48.5540    35.3980     0.5150 ca         1 XYR      -0.085000
     25 C7          51.5420    29.0490     2.3560 c3         1 XYR      -0.104100
     26 C8          51.8760    29.5410    -0.1210 ca         1 XYR      -0.090300
     27 F15         57.9550    34.4430    -0.7220 f          1 XYR      -0.097500
     28 F16         58.8500    32.7120     0.2540 f          1 XYR      -0.097500
     29 N13         56.7780    32.4220    -0.7800 na         1 XYR       0.030800
     30 N23         52.0260    26.8120    -5.4320 na         1 XYR       0.133800
     31 N25         50.8580    26.3640    -4.8280 nd         1 XYR      -0.524800
     32 N34         54.7150    36.4860    -1.4580 n3         1 XYR      -0.701600
     33 N5          50.5640    31.0350     1.2710 ns         1 XYR      -0.509900
     34 O28         48.5030    30.9920     0.3220 o          1 XYR      -0.586100
     35 O31         52.1950    35.7470     0.1480 os         1 XYR      -0.324100
     36 H1B         46.9380    32.7600     1.7040 hc         1 XYR       0.048033
     37 H1A         46.2620    34.2600     1.0730 hc         1 XYR       0.048033
     38 H1C         46.6310    32.9370    -0.0370 hc         1 XYR       0.048033
     39 H6          50.0170    29.0630     0.8520 h1         1 XYR       0.071700
     40 H9          53.3090    30.9230     0.6990 ha         1 XYR       0.101000
     41 H12         55.1920    32.0460     0.6830 h4         1 XYR       0.153000
     42 H14         57.1820    33.6000     0.9250 h3         1 XYR       0.075700
     43 H18         56.0660    30.7490    -3.3490 h4         1 XYR       0.044100
     44 H19         54.2050    29.4300    -3.2410 ha         1 XYR       0.110000
     45 H22         53.6780    28.1590    -4.9470 h4         1 XYR       0.154000
     46 H24C        52.5310    25.2580    -6.7610 h1         1 XYR       0.056700
     47 H24B        51.6180    26.6150    -7.4890 h1         1 XYR       0.056700
     48 H24A        53.3460    26.8180    -7.0780 h1         1 XYR       0.056700
     49 H26         50.0650    26.8260    -2.9780 h4         1 XYR       0.039100
     50 H27         50.6220    28.1600    -1.1990 ha         1 XYR       0.121000
     51 H29         51.6980    33.1220     0.4400 ha         1 XYR       0.114000
     52 H32B        53.5530    34.5990     1.2490 h1         1 XYR       0.030200
     53 H32A        53.4420    34.1660    -0.4680 h1         1 XYR       0.030200
     54 H33B        54.5560    36.7940     0.6420 h1         1 XYR       0.037700
     55 H33A        55.5450    35.4170     0.1790 h1         1 XYR       0.037700
     56 H35A        54.9120    35.8760    -3.4930 h1         1 XYR       0.031867
     57 H35C        55.7540    34.8310    -2.3260 h1         1 XYR       0.031867
     58 H35B        53.9820    34.7570    -2.4870 h1         1 XYR       0.031867
     59 H36A        55.7570    37.9560    -2.5970 h1         1 XYR       0.031867
     60 H36B        55.5980    38.3360    -0.8710 h1         1 XYR       0.031867
     61 H36C        56.7590    37.0960    -1.4030 h1         1 XYR       0.031867
     62 H37         49.9330    37.0390     0.2280 ha         1 XYR       0.132000
     63 H38         47.6840    36.0510     0.5260 ha         1 XYR       0.117000
     64 H7C         51.8080    27.9960     2.2030 hc         1 XYR       0.044700
     65 H7B         52.4470    29.5940     2.6490 hc         1 XYR       0.044700
     66 H7A         50.8240    29.1020     3.1840 hc         1 XYR       0.044700
     67 H5          51.2720    31.6570     1.6380 hn         1 XYR       0.316500
     68 C14         57.6720    33.3240    -0.0130 c3         1 XYR       0.342300
     69 C24         52.4040    26.3470    -6.7740 c3         1 XYR       0.072900
     70 C32         53.4310    35.0060     0.2370 c3         1 XYR       0.165600
@<TRIPOS>BOND
     1     1     2 1   
     2     1    36 1   
     3     1    37 1   
     4     1    38 1   
     5     2     3 ar  
     6     2    24 ar  
     7     3     4 1   
     8     3    18 ar  
     9     4    33 1   
    10     4    34 2   
    11     5    25 1   
    12     5    26 1   
    13     5    33 1   
    14     5    39 1   
    15     6     7 ar  
    16     6    26 ar  
    17     6    40 1   
    18     7     8 1   
    19     7    13 ar  
    20     8     9 2   
    21     8    12 1   
    22     9    29 1   
    23     9    41 1   
    24    10    12 2   
    25    10    29 1   
    26    11    13 ar  
    27    11    14 1   
    28    11    17 ar  
    29    12    43 1   
    30    13    44 1   
    31    14    15 2   
    32    14    16 1   
    33    15    30 1   
    34    15    45 1   
    35    16    31 2   
    36    16    49 1   
    37    17    26 ar  
    38    17    50 1   
    39    18    19 ar  
    40    18    51 1   
    41    19    23 ar  
    42    19    35 1   
    43    20    32 1   
    44    20    54 1   
    45    20    55 1   
    46    20    70 1   
    47    21    32 1   
    48    21    56 1   
    49    21    57 1   
    50    21    58 1   
    51    22    32 1   
    52    22    59 1   
    53    22    60 1   
    54    22    61 1   
    55    23    24 ar  
    56    23    62 1   
    57    24    63 1   
    58    25    64 1   
    59    25    65 1   
    60    25    66 1   
    61    27    68 1   
    62    28    68 1   
    63    29    68 1   
    64    30    31 1   
    65    30    69 1   
    66    33    67 1   
    67    35    70 1   
    68    42    68 1   
    69    46    69 1   
    70    47    69 1   
    71    48    69 1   
    72    52    70 1   
    73    53    70 1   
@<TRIPOS>SUBSTRUCTURE
     1 XYR         1 TEMP              0 ****  ****    0 ROOT
