@<TRIPOS>MOLECULE
XYS
   20    20     1     0     0
SMALL
No Charge or Current Charge


@<TRIPOS>ATOM
      1 C1          12.0570    31.3250    46.6020 c6         1 XYS       0.398300
      2 C2          12.0230    32.8360    46.1200 c6         1 XYS       0.157300
      3 C3          13.0260    33.0260    44.9560 c6         1 XYS       0.136300
      4 C4          14.4770    32.7560    45.4840 c6         1 XYS       0.104300
      5 C5          14.4780    31.5970    46.5450 c6         1 XYS       0.144600
      6 O1          11.2060    30.4930    45.8380 oh         1 XYS      -0.686000
      7 O2          10.7130    33.3400    45.7760 oh         1 XYS      -0.692000
      8 O3          12.9250    34.3480    44.3810 oh         1 XYS      -0.733000
      9 O4          15.3460    32.4860    44.3630 oh         1 XYS      -0.711000
     10 O5          13.3430    30.7210    46.3530 os         1 XYS      -0.486000
     11 H1          11.8030    31.2610    47.6710 h2         1 XYS       0.035700
     12 H2          12.3970    33.4370    46.9620 h1         1 XYS       0.034700
     13 H3          12.7960    32.2660    44.1920 h1         1 XYS       0.085700
     14 H4          14.8270    33.6610    46.0030 h1         1 XYS       0.043700
     15 H51         15.4030    31.0080    46.4690 h1         1 XYS       0.050700
     16 H52         14.4350    32.0170    47.5600 h1         1 XYS       0.050700
     17 HO1         11.8040    29.7480    45.6100 ho         1 XYS       0.516000
     18 HO2         10.9090    34.0480    45.1150 ho         1 XYS       0.522000
     19 HO3         13.7020    34.4330    43.7770 ho         1 XYS       0.523000
     20 HO4         16.2670    32.4250    44.7120 ho         1 XYS       0.505000
@<TRIPOS>BOND
     1     1     2 1   
     2     1     6 1   
     3     1    10 1   
     4     1    11 1   
     5     2     3 1   
     6     2     7 1   
     7     2    12 1   
     8     3     4 1   
     9     3     8 1   
    10     3    13 1   
    11     4     5 1   
    12     4     9 1   
    13     4    14 1   
    14     5    10 1   
    15     5    15 1   
    16     5    16 1   
    17     6    17 1   
    18     7    18 1   
    19     8    19 1   
    20     9    20 1   
@<TRIPOS>SUBSTRUCTURE
     1 XYS         1 TEMP              0 ****  ****    0 ROOT
