@<TRIPOS>MOLECULE
XYS
   20    20     1     0     0
SMALL
bcc


@<TRIPOS>ATOM
      1 C1          12.1550    31.2730    46.4390 c6         1 XYS       0.351900
      2 C2          12.1300    32.7680    46.0720 c6         1 XYS       0.134100
      3 C3          13.1350    33.0330    44.9550 c6         1 XYS       0.113100
      4 C4          14.5450    32.7720    45.4920 c6         1 XYS       0.081100
      5 C5          14.4930    31.7040    46.5890 c6         1 XYS       0.121400
      6 O1          11.3710    30.5730    45.5430 oh         1 XYS      -0.563800
      7 O2          10.8210    33.1170    45.7250 oh         1 XYS      -0.569800
      8 O3          12.9560    34.3610    44.5190 oh         1 XYS      -0.610800
      9 O4          15.3530    32.4130    44.3930 oh         1 XYS      -0.588800
     10 O5          13.4680    30.7610    46.3640 os         1 XYS      -0.439600
     11 H1          11.7820    31.1460    47.4670 h2         1 XYS       0.035700
     12 H2          12.4530    33.3340    46.9610 h1         1 XYS       0.034700
     13 H3          12.9420    32.3280    44.1350 h1         1 XYS       0.085700
     14 H4          14.9060    33.6990    45.9580 h1         1 XYS       0.043700
     15 H51         15.4340    31.1520    46.6230 h1         1 XYS       0.050700
     16 H52         14.3780    32.1870    47.5680 h1         1 XYS       0.050700
     17 HO1         11.1520    29.7140    45.9160 ho         1 XYS       0.417000
     18 HO2         10.8360    34.0380    45.4430 ho         1 XYS       0.423000
     19 HO3         13.3550    34.4580    43.6490 ho         1 XYS       0.424000
     20 HO4         16.2720    32.4020    44.6800 ho         1 XYS       0.406000
@<TRIPOS>BOND
     1     1     2 1   
     2     1     6 1   
     3     1    10 1   
     4     1    11 1   
     5     2     3 1   
     6     2     7 1   
     7     2    12 1   
     8     3     4 1   
     9     3     8 1   
    10     3    13 1   
    11     4     5 1   
    12     4     9 1   
    13     4    14 1   
    14     5    10 1   
    15     5    15 1   
    16     5    16 1   
    17     6    17 1   
    18     7    18 1   
    19     8    19 1   
    20     9    20 1   
@<TRIPOS>SUBSTRUCTURE
     1 XYS         1 TEMP              0 ****  ****    0 ROOT
