@<TRIPOS>MOLECULE
XYU
  146   149     1     0     0
SMALL
abcg2


@<TRIPOS>ATOM
      1 C10        -25.9150    25.1110     7.4670 c6         1 XYU      -0.063700
      2 C12        -25.6540    26.0910     8.6190 c6         1 XYU      -0.093400
      3 C13        -24.2960    25.8600     9.2730 c6         1 XYU       0.128300
      4 C17        -24.1550    24.4240     9.7520 c6         1 XYU       0.173300
      5 C2         -26.8360    22.0980     3.8640 c          1 XYU       0.578100
      6 C20        -24.3870    23.4470     8.6140 c6         1 XYU      -0.072400
      7 C21        -25.7510    23.6690     7.9610 c6         1 XYU      -0.077400
      8 C22        -26.4720    25.6660     3.8360 c3         1 XYU      -0.121400
      9 C23        -25.2810    25.6200     2.8750 c3         1 XYU       0.179300
     10 C25        -24.6600    27.0170     2.6940 c3         1 XYU      -0.028500
     11 C27        -23.6560    27.0630     1.5370 c3         1 XYU      -0.075100
     12 C28        -23.9710    27.3960     3.9760 c2         1 XYU      -0.180200
     13 C29        -24.3340    28.3100     4.8750 c2         1 XYU      -0.140400
     14 C30        -25.5570    29.1770     4.7830 c3         1 XYU      -0.058900
     15 C31        -23.5370    28.5090     6.1450 c3         1 XYU       0.223500
     16 C34        -22.7800    29.8600     6.2230 c3         1 XYU       0.026300
     17 C38        -21.5870    29.8830     5.2580 c          1 XYU       0.551100
     18 C4         -26.7240    24.3790     4.5890 c3         1 XYU       0.173300
     19 C40        -21.8730    30.3290     3.8450 c3         1 XYU      -0.163700
     20 C42        -20.9040    29.7120     2.8420 c3         1 XYU      -0.076100
     21 C43        -21.8620    31.8730     3.8240 c3         1 XYU      -0.063400
     22 C44        -22.4850    32.4760     2.5480 c3         1 XYU      -0.030500
     23 C46        -22.3740    34.0050     2.5860 c3         1 XYU      -0.084100
     24 C47        -23.9080    32.0330     2.4140 c2         1 XYU      -0.206200
     25 C48        -24.3540    31.1550     1.5060 ce         1 XYU      -0.183000
     26 C49        -25.7010    30.6420     1.4580 ce         1 XYU      -0.183000
     27 C50        -26.1050    29.6770     0.6080 cf         1 XYU      -0.163000
     28 C51        -27.4230    29.0960     0.6290 cf         1 XYU      -0.192000
     29 C52        -27.8730    28.0980    -0.1530 c2         1 XYU      -0.113400
     30 C53        -27.0690    27.4350    -1.2330 c3         1 XYU      -0.059900
     31 C54        -29.2720    27.5660     0.0650 c3         1 XYU       0.205500
     32 C56        -29.2570    26.0900     0.4410 c3         1 XYU      -0.072400
     33 C57        -30.6140    25.5230     0.8220 c6         1 XYU       0.183300
     34 C6         -27.7570    24.4660     5.7180 c3         1 XYU      -0.073700
     35 C60        -31.5120    23.3230     1.3020 c6         1 XYU       0.319000
     36 C62        -30.8830    21.9130     1.3560 c          1 XYU       0.494100
     37 C64        -29.8210    21.6000     2.4110 c          1 XYU       0.532100
     38 C67        -28.0430    22.1200     0.7750 c6         1 XYU       0.110000
     39 C68        -27.0540    21.1780     0.1040 c6         1 XYU      -0.095400
     40 C69        -25.9430    20.7760     1.0690 c6         1 XYU      -0.078400
     41 C70        -26.5520    20.1260     2.3070 c6         1 XYU      -0.079400
     42 C71        -27.5540    21.0570     3.0050 c6         1 XYU       0.046700
     43 C73        -32.1290    23.7900     2.6300 c6         1 XYU      -0.062700
     44 C75        -33.3460    22.9670     3.0340 c3         1 XYU      -0.085100
     45 C76        -32.4360    25.2880     2.5310 c6         1 XYU      -0.070400
     46 C77        -31.2030    26.0860     2.1040 c6         1 XYU      -0.105400
     47 C8         -29.1370    24.8960     5.2210 c3         1 XYU      -0.087100
     48 C9         -27.2950    25.3850     6.8600 c3         1 XYU      -0.068400
     49 N66        -28.5280    21.5890     2.0550 n          1 XYU      -0.372800
     50 O1         -26.0390    21.7540     4.7070 o          1 XYU      -0.490000
     51 O15        -24.0980    26.6910    10.4220 os         1 XYU      -0.479000
     52 O19        -22.8520    24.2010    10.2990 oh         1 XYU      -0.726000
     53 O3         -27.1890    23.3600     3.6270 os         1 XYU      -0.455100
     54 O33        -22.6380    27.4290     6.3560 oh         1 XYU      -0.721000
     55 O36        -22.3760    29.9930     7.5690 os         1 XYU      -0.461000
     56 O59        -30.3780    24.1040     0.9680 os         1 XYU      -0.508000
     57 O61        -32.4880    23.3550     0.3030 oh         1 XYU      -0.655000
     58 O63        -31.2550    21.0360     0.6120 o          1 XYU      -0.486100
     59 O65        -30.2600    21.2810     3.5160 o          1 XYU      -0.596100
     60 O78        -30.0830    27.6860    -1.1130 os         1 XYU      -0.462000
     61 O80        -25.6660    25.1180     1.5880 oh         1 XYU      -0.672000
     62 H1         -25.1490    25.2940     6.7030 hc         1 XYU       0.054700
     63 H2         -25.7190    27.1180     8.2510 hc         1 XYU       0.045200
     64 H3         -26.4310    25.9700     9.3810 hc         1 XYU       0.045200
     65 H4         -23.4960    26.0610     8.5510 h1         1 XYU       0.052700
     66 H8         -24.9090    24.2560    10.5340 h1         1 XYU       0.041700
     67 H9         -24.3030    22.4260     8.9930 hc         1 XYU       0.058700
     68 H10        -23.5940    23.5820     7.8700 hc         1 XYU       0.058700
     69 H11        -26.5460    23.4530     8.6840 hc         1 XYU       0.050700
     70 H12        -25.8740    22.9650     7.1370 hc         1 XYU       0.050700
     71 H13        -26.2730    26.4250     4.5920 hc         1 XYU       0.068700
     72 H14        -27.3590    25.9890     3.2890 hc         1 XYU       0.068700
     73 H15        -24.5080    24.9600     3.2900 h1         1 XYU       0.039700
     74 H16        -25.4680    27.7140     2.4690 hc         1 XYU       0.062700
     75 H17        -23.2350    28.0640     1.4480 hc         1 XYU       0.039700
     76 H18        -22.8340    26.3630     1.7090 hc         1 XYU       0.039700
     77 H19        -24.1340    26.8050     0.5940 hc         1 XYU       0.039700
     78 H20        -23.0740    26.8220     4.1830 ha         1 XYU       0.195000
     79 H21        -25.2960    30.2380     4.7950 hc         1 XYU       0.042367
     80 H22        -26.1260    28.9910     3.8760 hc         1 XYU       0.042367
     81 H23        -26.2100    28.9960     5.6430 hc         1 XYU       0.042367
     82 H24        -24.2520    28.5540     6.9760 h1         1 XYU       0.044700
     83 H25        -23.4730    30.6640     5.9560 h1         1 XYU       0.056700
     84 H26        -21.6890    31.2840     8.9730 h1         1 XYU       0.038033
     85 H27        -21.0100    31.5590     7.3510 h1         1 XYU       0.038033
     86 H28        -22.6890    32.0430     7.7070 h1         1 XYU       0.038033
     87 H29        -25.7830    24.0150     4.9920 h1         1 XYU       0.075700
     88 H30        -22.8890    30.0100     3.6080 hc         1 XYU       0.075700
     89 H31        -20.9250    28.6230     2.9040 hc         1 XYU       0.043367
     90 H32        -21.1740    29.9950     1.8250 hc         1 XYU       0.043367
     91 H33        -19.8830    30.0460     3.0330 hc         1 XYU       0.043367
     92 H34        -20.8300    32.2230     3.9230 hc         1 XYU       0.044200
     93 H35        -22.4130    32.2620     4.6850 hc         1 XYU       0.044200
     94 H36        -21.9280    32.1090     1.6820 hc         1 XYU       0.055700
     95 H37        -21.3320    34.3130     2.6950 hc         1 XYU       0.037033
     96 H38        -22.7690    34.4480     1.6700 hc         1 XYU       0.037033
     97 H39        -22.9380    34.4100     3.4300 hc         1 XYU       0.037033
     98 H40        -24.6010    32.4170     3.1620 ha         1 XYU       0.165000
     99 H41        -23.6550    30.7530     0.7760 ha         1 XYU       0.171000
    100 H42        -26.4050    31.0320     2.1890 ha         1 XYU       0.166000
    101 H43        -25.3830    29.2860    -0.1010 ha         1 XYU       0.176000
    102 H44        -28.1010    29.4930     1.3800 ha         1 XYU       0.164000
    103 H45        -26.2390    28.0530    -1.5720 hc         1 XYU       0.050700
    104 H46        -26.6540    26.4850    -0.8820 hc         1 XYU       0.050700
    105 H47        -27.7030    27.2110    -2.0920 hc         1 XYU       0.050700
    106 H48        -29.7400    28.1510     0.8660 h1         1 XYU       0.034700
    107 H49        -28.8730    25.5140    -0.4040 hc         1 XYU       0.066200
    108 H50        -28.5660    25.9450     1.2730 hc         1 XYU       0.066200
    109 H51        -31.3190    25.6640    -0.0010 h1         1 XYU       0.069700
    110 H52        -27.8470    23.4520     6.1190 hc         1 XYU       0.065700
    111 H53        -27.5750    23.0870     0.9640 h1         1 XYU       0.059200
    112 H54        -28.8940    22.3120     0.1300 h1         1 XYU       0.059200
    113 H55        -27.5820    20.2830    -0.2390 hc         1 XYU       0.056200
    114 H56        -26.6500    21.6800    -0.7760 hc         1 XYU       0.056200
    115 H57        -25.2510    20.0810     0.5890 hc         1 XYU       0.050200
    116 H58        -25.3620    21.6600     1.3550 hc         1 XYU       0.050200
    117 H59        -27.0860    19.2180     2.0190 hc         1 XYU       0.068200
    118 H60        -25.7910    19.8450     3.0320 hc         1 XYU       0.068200
    119 H61        -28.1210    20.4750     3.7320 h1         1 XYU       0.110700
    120 H62        -31.3520    23.6570     3.3840 hc         1 XYU       0.069700
    121 H63        -33.7040    23.2930     4.0130 hc         1 XYU       0.045033
    122 H64        -34.1570    23.0880     2.3160 hc         1 XYU       0.045033
    123 H65        -33.1060    21.9040     3.1040 hc         1 XYU       0.045033
    124 H66        -32.7940    25.6370     3.5020 hc         1 XYU       0.052700
    125 H67        -33.2480    25.4450     1.8160 hc         1 XYU       0.052700
    126 H68        -30.4420    26.0460     2.8880 hc         1 XYU       0.049200
    127 H69        -31.4660    27.1340     1.9540 hc         1 XYU       0.049200
    128 H70        -31.0720    28.9940    -2.3030 h1         1 XYU       0.032033
    129 H71        -30.8690    29.5470    -0.6200 h1         1 XYU       0.032033
    130 H72        -29.4890    29.5860    -1.7420 h1         1 XYU       0.032033
    131 H73        -29.8700    24.8120     6.0250 hc         1 XYU       0.039033
    132 H74        -29.1300    25.9340     4.8840 hc         1 XYU       0.039033
    133 H75        -29.4710    24.2740     4.3920 hc         1 XYU       0.039033
    134 H76        -27.3250    26.4240     6.5200 hc         1 XYU       0.040200
    135 H77        -28.0420    25.3080     7.6570 hc         1 XYU       0.040200
    136 H78        -22.6800    24.9360    10.9040 ho         1 XYU       0.514000
    137 H79        -22.1220    27.6320     7.1470 ho         1 XYU       0.528000
    138 H80        -32.2730    22.6770    -0.3570 ho         1 XYU       0.468000
    139 H81        -26.0810    24.2580     1.7260 ho         1 XYU       0.449000
    140 C16        -23.6790    28.0130    10.1170 c3         1 XYU       0.147900
    141 O39        -20.4780    29.5730     5.6430 o          1 XYU      -0.498100
    142 C37        -21.9140    31.2960     7.9080 c3         1 XYU       0.145900
    143 C79        -30.3860    29.0280    -1.4570 c3         1 XYU       0.143900
    144 H5         -23.5420    28.5320    11.0650 h1         1 XYU       0.032033
    145 H6         -22.7340    28.0090     9.5660 h1         1 XYU       0.032033
    146 H7         -24.4240    28.5480     9.5220 h1         1 XYU       0.032033
@<TRIPOS>BOND
     1     1     2 1   
     2     1     7 1   
     3     1    48 1   
     4     1    62 1   
     5     2     3 1   
     6     2    63 1   
     7     2    64 1   
     8     3     4 1   
     9     3    51 1   
    10     3    65 1   
    11     4     6 1   
    12     4    52 1   
    13     4    66 1   
    14     5    42 1   
    15     5    50 2   
    16     5    53 1   
    17     6     7 1   
    18     6    67 1   
    19     6    68 1   
    20     7    69 1   
    21     7    70 1   
    22     8     9 1   
    23     8    18 1   
    24     8    71 1   
    25     8    72 1   
    26     9    10 1   
    27     9    61 1   
    28     9    73 1   
    29    10    11 1   
    30    10    12 1   
    31    10    74 1   
    32    11    75 1   
    33    11    76 1   
    34    11    77 1   
    35    12    13 2   
    36    12    78 1   
    37    13    14 1   
    38    13    15 1   
    39    14    79 1   
    40    14    80 1   
    41    14    81 1   
    42    15    16 1   
    43    15    54 1   
    44    15    82 1   
    45    16    17 1   
    46    16    55 1   
    47    16    83 1   
    48    17    19 1   
    49    17   141 2   
    50    18    34 1   
    51    18    53 1   
    52    18    87 1   
    53    19    20 1   
    54    19    21 1   
    55    19    88 1   
    56    20    89 1   
    57    20    90 1   
    58    20    91 1   
    59    21    22 1   
    60    21    92 1   
    61    21    93 1   
    62    22    23 1   
    63    22    24 1   
    64    22    94 1   
    65    23    95 1   
    66    23    96 1   
    67    23    97 1   
    68    24    25 2   
    69    24    98 1   
    70    25    26 1   
    71    25    99 1   
    72    26    27 2   
    73    26   100 1   
    74    27    28 1   
    75    27   101 1   
    76    28    29 2   
    77    28   102 1   
    78    29    30 1   
    79    29    31 1   
    80    30   103 1   
    81    30   104 1   
    82    30   105 1   
    83    31    32 1   
    84    31    60 1   
    85    31   106 1   
    86    32    33 1   
    87    32   107 1   
    88    32   108 1   
    89    33    46 1   
    90    33    56 1   
    91    33   109 1   
    92    34    47 1   
    93    34    48 1   
    94    34   110 1   
    95    35    36 1   
    96    35    43 1   
    97    35    56 1   
    98    35    57 1   
    99    36    37 1   
   100    36    58 2   
   101    37    49 1   
   102    37    59 2   
   103    38    39 1   
   104    38    49 1   
   105    38   111 1   
   106    38   112 1   
   107    39    40 1   
   108    39   113 1   
   109    39   114 1   
   110    40    41 1   
   111    40   115 1   
   112    40   116 1   
   113    41    42 1   
   114    41   117 1   
   115    41   118 1   
   116    42    49 1   
   117    42   119 1   
   118    43    44 1   
   119    43    45 1   
   120    43   120 1   
   121    44   121 1   
   122    44   122 1   
   123    44   123 1   
   124    45    46 1   
   125    45   124 1   
   126    45   125 1   
   127    46   126 1   
   128    46   127 1   
   129    47   131 1   
   130    47   132 1   
   131    47   133 1   
   132    48   134 1   
   133    48   135 1   
   134    51   140 1   
   135    52   136 1   
   136    54   137 1   
   137    55   142 1   
   138    57   138 1   
   139    60   143 1   
   140    61   139 1   
   141    84   142 1   
   142    85   142 1   
   143    86   142 1   
   144   128   143 1   
   145   129   143 1   
   146   130   143 1   
   147   140   144 1   
   148   140   145 1   
   149   140   146 1   
@<TRIPOS>SUBSTRUCTURE
     1 XYU         1 TEMP              0 ****  ****    0 ROOT
