@<TRIPOS>MOLECULE
XYU
  146   149     1     0     0
SMALL
No Charge or Current Charge


@<TRIPOS>ATOM
      1 C10        -26.1350    25.1850     7.7290 c6         1 XYU      -0.063700
      2 C12        -25.9190    26.3570     8.7310 c6         1 XYU      -0.093400
      3 C13        -24.5990    26.1840     9.5340 c6         1 XYU       0.128300
      4 C17        -24.6040    24.8180    10.2790 c6         1 XYU       0.173300
      5 C2         -27.2480    21.8710     3.9780 c          1 XYU       0.578100
      6 C20        -24.7660    23.6520     9.2780 c6         1 XYU      -0.072400
      7 C21        -26.0730    23.8110     8.4600 c6         1 XYU      -0.077400
      8 C22        -26.2440    25.4960     4.1080 c3         1 XYU      -0.121400
      9 C23        -25.2350    25.4330     2.9400 c3         1 XYU       0.179300
     10 C25        -24.5040    26.7900     2.6810 c3         1 XYU      -0.028500
     11 C27        -23.6190    26.7640     1.4110 c3         1 XYU      -0.075100
     12 C28        -23.6550    27.1800     3.8930 c2         1 XYU      -0.180200
     13 C29        -23.9510    28.0470     4.8910 c2         1 XYU      -0.140400
     14 C30        -25.2330    28.8730     4.9810 c3         1 XYU      -0.058900
     15 C31        -23.0640    28.2610     6.1230 c3         1 XYU       0.223500
     16 C34        -22.2460    29.5800     6.1410 c3         1 XYU       0.026300
     17 C38        -21.2080    29.6790     4.9780 c          1 XYU       0.551100
     18 C4         -26.6560    24.1430     4.7600 c3         1 XYU       0.173300
     19 C40        -21.7320    30.1970     3.6200 c3         1 XYU      -0.163700
     20 C42        -21.0300    29.5040     2.4240 c3         1 XYU      -0.076100
     21 C43        -21.6460    31.7520     3.5700 c3         1 XYU      -0.063400
     22 C44        -22.4170    32.4190     2.3980 c3         1 XYU      -0.030500
     23 C46        -22.3180    33.9580     2.4550 c3         1 XYU      -0.084100
     24 C47        -23.8670    31.9710     2.3710 c2         1 XYU      -0.206200
     25 C48        -24.3920    31.1010     1.4840 ce         1 XYU      -0.183000
     26 C49        -25.7700    30.6100     1.5480 ce         1 XYU      -0.183000
     27 C50        -26.2930    29.7100     0.6760 cf         1 XYU      -0.163000
     28 C51        -27.6390    29.1560     0.7690 cf         1 XYU      -0.192000
     29 C52        -28.2120    28.3080    -0.1220 c2         1 XYU      -0.113400
     30 C53        -27.5260    27.8290    -1.4000 c3         1 XYU      -0.059900
     31 C54        -29.5920    27.6920     0.1290 c3         1 XYU       0.205500
     32 C56        -29.5310    26.1510     0.2280 c3         1 XYU      -0.072400
     33 C57        -30.8270    25.4420     0.7000 c6         1 XYU       0.183300
     34 C6         -27.8090    24.3450     5.8220 c3         1 XYU      -0.073700
     35 C60        -31.5280    23.0930     1.0510 c6         1 XYU       0.319000
     36 C62        -30.9060    21.6520     0.8900 c          1 XYU       0.494100
     37 C64        -29.8500    21.2020     1.9930 c          1 XYU       0.532100
     38 C67        -27.9930    22.2870     0.6340 c6         1 XYU       0.110000
     39 C68        -26.6190    21.9250     0.0290 c6         1 XYU      -0.095400
     40 C69        -25.5510    21.6790     1.1050 c6         1 XYU      -0.078400
     41 C70        -26.0530    20.6050     2.0770 c6         1 XYU      -0.079400
     42 C71        -27.4220    20.9420     2.7390 c6         1 XYU       0.046700
     43 C73        -31.9790    23.4220     2.5190 c6         1 XYU      -0.062700
     44 C75        -33.1370    22.5070     3.0210 c3         1 XYU      -0.085100
     45 C76        -32.3650    24.9210     2.6640 c6         1 XYU      -0.070400
     46 C77        -31.2390    25.8380     2.1390 c6         1 XYU      -0.105400
     47 C8         -29.1740    24.6840     5.1800 c3         1 XYU      -0.087100
     48 C9         -27.4710    25.3850     6.9370 c3         1 XYU      -0.068400
     49 N66        -28.4610    21.3870     1.7370 n          1 XYU      -0.372800
     50 O1         -27.5610    21.4640     5.0870 o          1 XYU      -0.490000
     51 O15        -24.3810    27.2510    10.4910 os         1 XYU      -0.479000
     52 O19        -23.4050    24.6740    11.0510 oh         1 XYU      -0.726000
     53 O3         -27.0060    23.2070     3.6930 os         1 XYU      -0.455100
     54 O33        -22.1740    27.1620     6.3400 oh         1 XYU      -0.721000
     55 O36        -21.6150    29.6450     7.4530 os         1 XYU      -0.461000
     56 O59        -30.5080    24.0330     0.6540 os         1 XYU      -0.508000
     57 O61        -32.6190    23.2700     0.1330 oh         1 XYU      -0.655000
     58 O63        -31.0830    20.9710    -0.1260 o          1 XYU      -0.486100
     59 O65        -30.2200    20.6430     3.0240 o          1 XYU      -0.596100
     60 O78        -30.4930    28.0330    -0.9440 os         1 XYU      -0.462000
     61 O80        -25.9740    25.0420     1.7870 oh         1 XYU      -0.672000
     62 H1         -25.3140    25.2230     7.0010 hc         1 XYU       0.054700
     63 H2         -25.8980    27.3030     8.1730 hc         1 XYU       0.045200
     64 H3         -26.7670    26.4190     9.4270 hc         1 XYU       0.045200
     65 H4         -23.7580    26.1860     8.8240 h1         1 XYU       0.052700
     66 H8         -25.4720    24.8070    10.9550 h1         1 XYU       0.041700
     67 H9         -24.7810    22.6950     9.8170 hc         1 XYU       0.058700
     68 H10        -23.9030    23.6170     8.5980 hc         1 XYU       0.058700
     69 H11        -26.9400    23.7060     9.1280 hc         1 XYU       0.050700
     70 H12        -26.1380    22.9880     7.7360 hc         1 XYU       0.050700
     71 H13        -25.8060    26.1040     4.9010 hc         1 XYU       0.068700
     72 H14        -27.1320    26.0440     3.7750 hc         1 XYU       0.068700
     73 H15        -24.4740    24.6760     3.1760 h1         1 XYU       0.039700
     74 H16        -25.2750    27.5430     2.4900 hc         1 XYU       0.062700
     75 H17        -23.1350    27.7360     1.2650 hc         1 XYU       0.039700
     76 H18        -22.8400    25.9970     1.4910 hc         1 XYU       0.039700
     77 H19        -24.2170    26.5580     0.5160 hc         1 XYU       0.039700
     78 H20        -22.7190    26.6210     3.9410 ha         1 XYU       0.195000
     79 H21        -25.0140    29.9470     4.9690 hc         1 XYU       0.042367
     80 H22        -25.9350    28.6850     4.1630 hc         1 XYU       0.042367
     81 H23        -25.7750    28.6570     5.9100 hc         1 XYU       0.042367
     82 H24        -23.7400    28.3170     6.9870 h1         1 XYU       0.044700
     83 H25        -22.9490    30.4140     6.0240 h1         1 XYU       0.056700
     84 H26        -20.6610    30.8940     8.8330 h1         1 XYU       0.038033
     85 H27        -20.3200    31.2740     7.1330 h1         1 XYU       0.038033
     86 H28        -21.9010    31.6880     7.8400 h1         1 XYU       0.038033
     87 H29        -25.7740    23.7540     5.2870 h1         1 XYU       0.075700
     88 H30        -22.7970    29.9590     3.5880 hc         1 XYU       0.075700
     89 H31        -21.0760    28.4130     2.5320 hc         1 XYU       0.043367
     90 H32        -21.5110    29.7670     1.4760 hc         1 XYU       0.043367
     91 H33        -19.9740    29.7960     2.3650 hc         1 XYU       0.043367
     92 H34        -20.5920    32.0530     3.5290 hc         1 XYU       0.044200
     93 H35        -22.0430    32.1550     4.5110 hc         1 XYU       0.044200
     94 H36        -21.9310    32.1110     1.4630 hc         1 XYU       0.055700
     95 H37        -21.2710    34.2800     2.4270 hc         1 XYU       0.037033
     96 H38        -22.8350    34.4070     1.5990 hc         1 XYU       0.037033
     97 H39        -22.7740    34.3460     3.3740 hc         1 XYU       0.037033
     98 H40        -24.4800    32.3720     3.1800 ha         1 XYU       0.165000
     99 H41        -23.7660    30.6910     0.6890 ha         1 XYU       0.171000
    100 H42        -26.3920    30.9750     2.3680 ha         1 XYU       0.166000
    101 H43        -25.6490    29.3490    -0.1270 ha         1 XYU       0.176000
    102 H44        -28.2070    29.4350     1.6600 ha         1 XYU       0.164000
    103 H45        -26.9170    28.6190    -1.8540 hc         1 XYU       0.050700
    104 H46        -26.8700    26.9750    -1.1940 hc         1 XYU       0.050700
    105 H47        -28.2450    27.5170    -2.1660 hc         1 XYU       0.050700
    106 H48        -29.9810    28.0810     1.0790 h1         1 XYU       0.034700
    107 H49        -29.2440    25.7450    -0.7490 hc         1 XYU       0.066200
    108 H50        -28.7150    25.8910     0.9130 hc         1 XYU       0.066200
    109 H51        -31.6410    25.6630    -0.0060 h1         1 XYU       0.069700
    110 H52        -27.9570    23.4080     6.3620 hc         1 XYU       0.065700
    111 H53        -27.9510    23.3120     1.0270 h1         1 XYU       0.059200
    112 H54        -28.7170    22.2960    -0.1910 h1         1 XYU       0.059200
    113 H55        -26.7270    21.0220    -0.5880 hc         1 XYU       0.056200
    114 H56        -26.2910    22.7240    -0.6500 hc         1 XYU       0.056200
    115 H57        -24.6160    21.3470     0.6330 hc         1 XYU       0.050200
    116 H58        -25.3100    22.5970     1.6490 hc         1 XYU       0.050200
    117 H59        -26.1550    19.6570     1.5290 hc         1 XYU       0.068200
    118 H60        -25.2980    20.4190     2.8530 hc         1 XYU       0.068200
    119 H61        -27.7770    19.9990     3.1800 h1         1 XYU       0.110700
    120 H62        -31.1370    23.2320     3.1930 hc         1 XYU       0.069700
    121 H63        -33.3780    22.7200     4.0690 hc         1 XYU       0.045033
    122 H64        -34.0520    22.6590     2.4360 hc         1 XYU       0.045033
    123 H65        -32.8750    21.4450     2.9570 hc         1 XYU       0.045033
    124 H66        -32.5750    25.1580     3.7160 hc         1 XYU       0.052700
    125 H67        -33.2910    25.1260     2.1080 hc         1 XYU       0.052700
    126 H68        -30.3670    25.7750     2.8000 hc         1 XYU       0.049200
    127 H69        -31.5780    26.8820     2.1640 hc         1 XYU       0.049200
    128 H70        -31.5440    29.5910    -1.8590 h1         1 XYU       0.032033
    129 H71        -31.2720    29.7960    -0.1150 h1         1 XYU       0.032033
    130 H72        -29.9310    30.0330    -1.2650 h1         1 XYU       0.032033
    131 H73        -29.9780    24.6130     5.9220 hc         1 XYU       0.039033
    132 H74        -29.1790    25.7020     4.7760 hc         1 XYU       0.039033
    133 H75        -29.4030    23.9860     4.3690 hc         1 XYU       0.039033
    134 H76        -27.4790    26.3880     6.4940 hc         1 XYU       0.040200
    135 H77        -28.3020    25.3870     7.6540 hc         1 XYU       0.040200
    136 H78        -23.2280    25.5840    11.3920 ho         1 XYU       0.514000
    137 H79        -21.5490    27.4870     7.0300 ho         1 XYU       0.528000
    138 H80        -32.2480    23.0600    -0.7500 ho         1 XYU       0.468000
    139 H81        -26.5410    24.3040     2.1050 ho         1 XYU       0.449000
    140 C16        -24.1440    28.5740     9.9740 c3         1 XYU       0.147900
    141 O39        -20.0070    29.4950     5.1560 o          1 XYU      -0.498100
    142 C37        -21.0990    30.9380     7.8280 c3         1 XYU       0.145900
    143 C79        -30.8230    29.4300    -1.0480 c3         1 XYU       0.143900
    144 H5         -23.9340    29.2700    10.7950 h1         1 XYU       0.032033
    145 H6         -23.2800    28.5770     9.2980 h1         1 XYU       0.032033
    146 H7         -25.0180    28.9520     9.4280 h1         1 XYU       0.032033
@<TRIPOS>BOND
     1     1     2 1   
     2     1     7 1   
     3     1    48 1   
     4     1    62 1   
     5     2     3 1   
     6     2    63 1   
     7     2    64 1   
     8     3     4 1   
     9     3    51 1   
    10     3    65 1   
    11     4     6 1   
    12     4    52 1   
    13     4    66 1   
    14     5    42 1   
    15     5    50 2   
    16     5    53 1   
    17     6     7 1   
    18     6    67 1   
    19     6    68 1   
    20     7    69 1   
    21     7    70 1   
    22     8     9 1   
    23     8    18 1   
    24     8    71 1   
    25     8    72 1   
    26     9    10 1   
    27     9    61 1   
    28     9    73 1   
    29    10    11 1   
    30    10    12 1   
    31    10    74 1   
    32    11    75 1   
    33    11    76 1   
    34    11    77 1   
    35    12    13 2   
    36    12    78 1   
    37    13    14 1   
    38    13    15 1   
    39    14    79 1   
    40    14    80 1   
    41    14    81 1   
    42    15    16 1   
    43    15    54 1   
    44    15    82 1   
    45    16    17 1   
    46    16    55 1   
    47    16    83 1   
    48    17    19 1   
    49    17   141 2   
    50    18    34 1   
    51    18    53 1   
    52    18    87 1   
    53    19    20 1   
    54    19    21 1   
    55    19    88 1   
    56    20    89 1   
    57    20    90 1   
    58    20    91 1   
    59    21    22 1   
    60    21    92 1   
    61    21    93 1   
    62    22    23 1   
    63    22    24 1   
    64    22    94 1   
    65    23    95 1   
    66    23    96 1   
    67    23    97 1   
    68    24    25 2   
    69    24    98 1   
    70    25    26 1   
    71    25    99 1   
    72    26    27 2   
    73    26   100 1   
    74    27    28 1   
    75    27   101 1   
    76    28    29 2   
    77    28   102 1   
    78    29    30 1   
    79    29    31 1   
    80    30   103 1   
    81    30   104 1   
    82    30   105 1   
    83    31    32 1   
    84    31    60 1   
    85    31   106 1   
    86    32    33 1   
    87    32   107 1   
    88    32   108 1   
    89    33    46 1   
    90    33    56 1   
    91    33   109 1   
    92    34    47 1   
    93    34    48 1   
    94    34   110 1   
    95    35    36 1   
    96    35    43 1   
    97    35    56 1   
    98    35    57 1   
    99    36    37 1   
   100    36    58 2   
   101    37    49 1   
   102    37    59 2   
   103    38    39 1   
   104    38    49 1   
   105    38   111 1   
   106    38   112 1   
   107    39    40 1   
   108    39   113 1   
   109    39   114 1   
   110    40    41 1   
   111    40   115 1   
   112    40   116 1   
   113    41    42 1   
   114    41   117 1   
   115    41   118 1   
   116    42    49 1   
   117    42   119 1   
   118    43    44 1   
   119    43    45 1   
   120    43   120 1   
   121    44   121 1   
   122    44   122 1   
   123    44   123 1   
   124    45    46 1   
   125    45   124 1   
   126    45   125 1   
   127    46   126 1   
   128    46   127 1   
   129    47   131 1   
   130    47   132 1   
   131    47   133 1   
   132    48   134 1   
   133    48   135 1   
   134    51   140 1   
   135    52   136 1   
   136    54   137 1   
   137    55   142 1   
   138    57   138 1   
   139    60   143 1   
   140    61   139 1   
   141    84   142 1   
   142    85   142 1   
   143    86   142 1   
   144   128   143 1   
   145   129   143 1   
   146   130   143 1   
   147   140   144 1   
   148   140   145 1   
   149   140   146 1   
@<TRIPOS>SUBSTRUCTURE
     1 XYU         1 TEMP              0 ****  ****    0 ROOT
