@<TRIPOS>MOLECULE
XYV
   58    61     1     0     0
SMALL
abcg2


@<TRIPOS>ATOM
      1 C10         -3.7390     0.7670     1.1200 c6         1 XYV       0.242000
      2 C13         -2.4090    -2.6660     0.7980 ce         1 XYV      -0.221400
      3 C17         -3.7910    -1.2870     3.8930 c3         1 XYV      -0.053200
      4 C26         -4.5960     4.4500    -0.6040 c          1 XYV       0.607100
      5 C28         -4.8130     5.6750    -1.4400 c3         1 XYV      -0.156100
      6 C01         -3.6530     0.8510    -1.4710 c3         1 XYV      -0.084100
      7 C02         -4.5040     0.5770    -0.2310 c6         1 XYV      -0.082700
      8 C03         -5.8320     1.3750    -0.3060 c6         1 XYV      -0.057400
      9 C04         -5.8520     2.6810     0.4650 cx         1 XYV       0.125000
     10 C05         -5.2590     2.6080     1.8400 cx         1 XYV      -0.117700
     11 C06         -6.7360     2.8800     1.6710 cx         1 XYV      -0.079000
     12 C07         -7.1770     4.2950     1.9800 c3         1 XYV      -0.061100
     13 C08         -7.8000     1.8770     2.0530 c3         1 XYV      -0.061100
     14 C09         -4.7440     1.2320     2.2070 c6         1 XYV      -0.032500
     15 C11         -3.0330    -0.5140     1.6080 c5         1 XYV      -0.033500
     16 C12         -2.3030    -1.3470     0.5970 c2         1 XYV      -0.127200
     17 C14         -3.2410    -2.8840     1.9850 c          1 XYV       0.548300
     18 C16         -3.8680    -1.5400     2.3930 c5         1 XYV       0.087000
     19 C18         -3.8840     0.1450     4.3530 c2         1 XYV      -0.133400
     20 C19         -4.2260     1.2080     3.6190 c2         1 XYV      -0.165200
     21 C23         -1.7640    -3.7800     0.0520 c3         1 XYV      -0.027900
     22 O15         -3.4440    -3.9370     2.5480 o          1 XYV      -0.517100
     23 O21         -2.1410     0.0030     5.9780 oh         1 XYV      -0.657000
     24 O22         -5.1920    -1.5990     1.8950 oh         1 XYV      -0.653000
     25 O24         -2.6900     1.7020     1.0030 oh         1 XYV      -0.681000
     26 O25         -5.7400     3.8330    -0.3560 os         1 XYV      -0.422100
     27 O27         -3.5130     4.0810    -0.2120 o          1 XYV      -0.503000
     28 H2          -4.5360    -1.8970     4.4190 hc         1 XYV       0.066200
     29 H3          -3.7010     1.3780     6.0910 h1         1 XYV       0.023700
     30 H4          -4.1470    -0.2960     6.4170 h1         1 XYV       0.023700
     31 H5          -3.8690     6.1740    -1.6360 hc         1 XYV       0.071700
     32 H6          -5.2790     5.4060    -2.3890 hc         1 XYV       0.071700
     33 H7          -5.4870     6.3650    -0.9340 hc         1 XYV       0.071700
     34 H8          -2.7120     0.3040    -1.4760 hc         1 XYV       0.036033
     35 H9          -4.2070     0.5340    -2.3570 hc         1 XYV       0.036033
     36 H10         -3.4170     1.9050    -1.6050 hc         1 XYV       0.036033
     37 H11         -4.7910    -0.4750    -0.2810 hc         1 XYV       0.070700
     38 H12         -6.0760     1.5720    -1.3520 hc         1 XYV       0.058700
     39 H13         -6.6420     0.7420     0.0560 hc         1 XYV       0.058700
     40 H14         -4.6760     3.4460     2.2110 hc         1 XYV       0.099700
     41 H15         -7.4630     4.3630     3.0310 hc         1 XYV       0.041200
     42 H16         -6.3990     5.0390     1.8110 hc         1 XYV       0.041200
     43 H17         -8.0480     4.5770     1.3850 hc         1 XYV       0.041200
     44 H18         -8.0310     1.9720     3.1150 hc         1 XYV       0.041200
     45 H19         -8.7190     2.0720     1.4970 hc         1 XYV       0.041200
     46 H20         -7.5270     0.8390     1.8770 hc         1 XYV       0.041200
     47 H21         -5.5790     0.5340     2.1700 hc         1 XYV       0.085700
     48 H22         -2.2670    -0.1440     2.3010 hc         1 XYV       0.104700
     49 H23         -1.6740    -0.9090    -0.1670 ha         1 XYV       0.201000
     50 H25         -4.1820     2.1720     4.1180 ha         1 XYV       0.172000
     51 H27         -1.1520    -4.3950     0.7140 hc         1 XYV       0.046033
     52 H28         -2.5110    -4.4400    -0.3930 hc         1 XYV       0.046033
     53 H29         -1.1270    -3.4050    -0.7470 hc         1 XYV       0.046033
     54 H30         -1.9960    -0.1650     6.9130 ho         1 XYV       0.442000
     55 H31         -5.6890    -2.2330     2.4260 ho         1 XYV       0.453000
     56 H32         -3.0280     2.5240     0.6110 ho         1 XYV       0.483000
     57 H1          -2.8250    -1.6670     4.2430 hc         1 XYV       0.066200
     58 C20         -3.5030     0.3400     5.7950 c3         1 XYV       0.199800
@<TRIPOS>BOND
     1     1     7 1   
     2     1    14 1   
     3     1    15 1   
     4     1    25 1   
     5     2    16 2   
     6     2    17 1   
     7     2    21 1   
     8     3    18 1   
     9     3    19 1   
    10     3    28 1   
    11     3    57 1   
    12     4     5 1   
    13     4    26 1   
    14     4    27 2   
    15     5    31 1   
    16     5    32 1   
    17     5    33 1   
    18     6     7 1   
    19     6    34 1   
    20     6    35 1   
    21     6    36 1   
    22     7     8 1   
    23     7    37 1   
    24     8     9 1   
    25     8    38 1   
    26     8    39 1   
    27     9    10 1   
    28     9    11 1   
    29     9    26 1   
    30    10    11 1   
    31    10    14 1   
    32    10    40 1   
    33    11    12 1   
    34    11    13 1   
    35    12    41 1   
    36    12    42 1   
    37    12    43 1   
    38    13    44 1   
    39    13    45 1   
    40    13    46 1   
    41    14    20 1   
    42    14    47 1   
    43    15    16 1   
    44    15    18 1   
    45    15    48 1   
    46    16    49 1   
    47    17    18 1   
    48    17    22 2   
    49    18    24 1   
    50    19    20 2   
    51    19    58 1   
    52    20    50 1   
    53    21    51 1   
    54    21    52 1   
    55    21    53 1   
    56    23    54 1   
    57    23    58 1   
    58    24    55 1   
    59    25    56 1   
    60    29    58 1   
    61    30    58 1   
@<TRIPOS>SUBSTRUCTURE
     1 XYV         1 TEMP              0 ****  ****    0 ROOT
