@<TRIPOS>MOLECULE
XYV
   58    61     1     0     0
SMALL
No Charge or Current Charge


@<TRIPOS>ATOM
      1 C10         -3.7160     0.7780     1.1170 c6         1 XYV       0.242000
      2 C13         -2.2860    -2.6590     0.9430 ce         1 XYV      -0.221400
      3 C17         -4.1290    -1.3060     3.8950 c3         1 XYV      -0.053200
      4 C26         -4.5410     4.4750    -0.6050 c          1 XYV       0.607100
      5 C28         -4.6770     5.7140    -1.4760 c3         1 XYV      -0.156100
      6 C01         -3.6520     0.8460    -1.5630 c3         1 XYV      -0.084100
      7 C02         -4.5060     0.6230    -0.2690 c6         1 XYV      -0.082700
      8 C03         -5.8450     1.4490    -0.3820 c6         1 XYV      -0.057400
      9 C04         -5.9100     2.7490     0.4590 cx         1 XYV       0.125000
     10 C05         -5.2980     2.6640     1.8430 cx         1 XYV      -0.117700
     11 C06         -6.7870     2.9180     1.7040 cx         1 XYV      -0.079000
     12 C07         -7.2940     4.3140     2.0860 c3         1 XYV      -0.061100
     13 C08         -7.8550     1.8860     2.1080 c3         1 XYV      -0.061100
     14 C09         -4.7040     1.2920     2.2310 c6         1 XYV      -0.032500
     15 C11         -3.0230    -0.5500     1.6240 c5         1 XYV      -0.033500
     16 C12         -2.2230    -1.3590     0.6060 c2         1 XYV      -0.127200
     17 C14         -3.1090    -2.9330     2.1480 c          1 XYV       0.548300
     18 C16         -3.9270    -1.6170     2.3680 c5         1 XYV       0.087000
     19 C18         -3.9250     0.1440     4.3710 c2         1 XYV      -0.133400
     20 C19         -4.1360     1.2630     3.6450 c2         1 XYV      -0.165200
     21 C23         -1.6920    -3.7980     0.1330 c3         1 XYV      -0.027900
     22 O15         -3.1770    -4.0010     2.7490 o          1 XYV      -0.517100
     23 O21         -2.0130     0.1510     5.8440 oh         1 XYV      -0.657000
     24 O22         -5.2290    -1.8000     1.7660 oh         1 XYV      -0.653000
     25 O24         -2.6690     1.7470     0.9550 oh         1 XYV      -0.681000
     26 O25         -5.7610     3.9310    -0.3110 os         1 XYV      -0.422100
     27 O27         -3.4690     4.0360    -0.2170 o          1 XYV      -0.503000
     28 H2          -5.1060    -1.6690     4.2400 hc         1 XYV       0.066200
     29 H3          -3.7830     1.1620     6.2640 h1         1 XYV       0.023700
     30 H4          -3.8770    -0.5970     6.3980 h1         1 XYV       0.023700
     31 H5          -3.7100     6.1680    -1.7170 hc         1 XYV       0.071700
     32 H6          -5.2420     5.4510    -2.3760 hc         1 XYV       0.071700
     33 H7          -5.3490     6.4220    -0.9780 hc         1 XYV       0.071700
     34 H8          -2.7360     0.2540    -1.5820 hc         1 XYV       0.036033
     35 H9          -4.2220     0.5620    -2.4560 hc         1 XYV       0.036033
     36 H10         -3.3650     1.8950    -1.6900 hc         1 XYV       0.036033
     37 H11         -4.8050    -0.4290    -0.3520 hc         1 XYV       0.070700
     38 H12         -6.0530     1.7020    -1.4300 hc         1 XYV       0.058700
     39 H13         -6.6780     0.7930    -0.1070 hc         1 XYV       0.058700
     40 H14         -4.6740     3.5000     2.1510 hc         1 XYV       0.099700
     41 H15         -7.5620     4.3600     3.1480 hc         1 XYV       0.041200
     42 H16         -6.5380     5.0900     1.9110 hc         1 XYV       0.041200
     43 H17         -8.1820     4.5820     1.5010 hc         1 XYV       0.041200
     44 H18         -8.0110     1.8990     3.1930 hc         1 XYV       0.041200
     45 H19         -8.8160     2.1220     1.6340 hc         1 XYV       0.041200
     46 H20         -7.6170     0.8550     1.8350 hc         1 XYV       0.041200
     47 H21         -5.5380     0.5900     2.2560 hc         1 XYV       0.085700
     48 H22         -2.2780    -0.1900     2.3440 hc         1 XYV       0.104700
     49 H23         -1.6540    -0.9650    -0.2340 ha         1 XYV       0.201000
     50 H25         -3.9390     2.2380     4.0930 ha         1 XYV       0.172000
     51 H27         -0.7220    -4.1060     0.5390 hc         1 XYV       0.046033
     52 H28         -2.3480    -4.6770     0.1340 hc         1 XYV       0.046033
     53 H29         -1.5380    -3.5080    -0.9140 hc         1 XYV       0.046033
     54 H30         -1.7490     0.2270     6.7870 ho         1 XYV       0.442000
     55 H31         -5.6280    -2.6070     2.1610 ho         1 XYV       0.453000
     56 H32         -3.0810     2.5410     0.5280 ho         1 XYV       0.483000
     57 H1          -3.4070    -1.9270     4.4400 hc         1 XYV       0.066200
     58 C20         -3.4410     0.2220     5.8110 c3         1 XYV       0.199800
@<TRIPOS>BOND
     1     1     7 1   
     2     1    14 1   
     3     1    15 1   
     4     1    25 1   
     5     2    16 2   
     6     2    17 1   
     7     2    21 1   
     8     3    18 1   
     9     3    19 1   
    10     3    28 1   
    11     3    57 1   
    12     4     5 1   
    13     4    26 1   
    14     4    27 2   
    15     5    31 1   
    16     5    32 1   
    17     5    33 1   
    18     6     7 1   
    19     6    34 1   
    20     6    35 1   
    21     6    36 1   
    22     7     8 1   
    23     7    37 1   
    24     8     9 1   
    25     8    38 1   
    26     8    39 1   
    27     9    10 1   
    28     9    11 1   
    29     9    26 1   
    30    10    11 1   
    31    10    14 1   
    32    10    40 1   
    33    11    12 1   
    34    11    13 1   
    35    12    41 1   
    36    12    42 1   
    37    12    43 1   
    38    13    44 1   
    39    13    45 1   
    40    13    46 1   
    41    14    20 1   
    42    14    47 1   
    43    15    16 1   
    44    15    18 1   
    45    15    48 1   
    46    16    49 1   
    47    17    18 1   
    48    17    22 2   
    49    18    24 1   
    50    19    20 2   
    51    19    58 1   
    52    20    50 1   
    53    21    51 1   
    54    21    52 1   
    55    21    53 1   
    56    23    54 1   
    57    23    58 1   
    58    24    55 1   
    59    25    56 1   
    60    29    58 1   
    61    30    58 1   
@<TRIPOS>SUBSTRUCTURE
     1 XYV         1 TEMP              0 ****  ****    0 ROOT
