@<TRIPOS>MOLECULE
XYW
   72    77     1     0     0
SMALL
No Charge or Current Charge


@<TRIPOS>ATOM
      1 C1           9.1340    -0.6150     1.9460 c3         1 XYW      -0.337100
      2 S2           8.7700     0.0180     0.3090 sy         1 XYW       1.053500
      3 O3           9.8110     1.0090     0.0030 o          1 XYW      -0.522500
      4 O4           8.5540    -1.1510    -0.5540 o          1 XYW      -0.522500
      5 C5           7.1950     0.8740     0.5410 ca         1 XYW      -0.234500
      6 C6           7.1710     2.2340     0.9140 ca         1 XYW      -0.052000
      7 C7           5.9420     2.8830     1.1140 ca         1 XYW      -0.095000
      8 C8           4.7360     2.1830     0.9390 ca         1 XYW      -0.123000
      9 C9           4.7400     0.8310     0.5540 ca         1 XYW       0.308000
     10 N10          3.5080     0.1770     0.4060 nu         1 XYW      -0.930900
     11 C11          3.0620    -0.9100    -0.3360 ca         1 XYW       0.388900
     12 N12          3.8950    -1.4710    -1.2320 nb         1 XYW      -0.229000
     13 C13          3.4090    -2.5110    -1.9340 ca         1 XYW       0.152900
     14 C14          2.0980    -2.9720    -1.7410 ca         1 XYW      -0.273000
     15 C15          1.3010    -2.3100    -0.7940 ca         1 XYW       0.270500
     16 N16          1.7960    -1.2770    -0.0820 nb         1 XYW      -0.245000
     17 C17         -0.0650    -2.7630    -0.5500 cc         1 XYW      -0.337500
     18 S18         -0.4600    -4.4330    -0.2800 ss         1 XYW      -0.075400
     19 C19         -1.9870    -3.8880     0.3740 cc         1 XYW       0.727300
     20 N20         -2.1960    -2.5860     0.3530 nd         1 XYW      -0.750000
     21 C21         -1.0900    -1.9160    -0.1550 cd         1 XYW       0.451500
     22 C22         -1.1970    -0.4450    -0.3660 ca         1 XYW      -0.106500
     23 C23         -0.4850     0.2150    -1.3940 ca         1 XYW      -0.064000
     24 C24         -0.6390     1.5940    -1.6030 ca         1 XYW      -0.113000
     25 C25         -1.5300     2.3340    -0.8120 ca         1 XYW      -0.069000
     26 C26         -2.2910     1.6930     0.1840 ca         1 XYW       0.216000
     27 N27         -3.2140     2.3800     0.9760 nu         1 XYW      -0.874100
     28 S28         -4.0160     3.8260     0.6840 sy         1 XYW       1.165600
     29 O29         -5.0960     3.7820     1.6710 o          1 XYW      -0.517500
     30 O30         -2.9660     4.8440     0.7340 o          1 XYW      -0.517500
     31 C31         -4.7000     3.6450    -0.9510 ca         1 XYW      -0.389500
     32 C32         -5.6150     2.6060    -1.1960 ca         1 XYW       0.298000
     33 F33         -5.9800     1.7490    -0.2170 f          1 XYW      -0.149000
     34 C34         -6.1660     2.4270    -2.4740 ca         1 XYW      -0.192500
     35 C35         -5.8100     3.2850    -3.5240 ca         1 XYW      -0.007000
     36 C36         -4.8990     4.3240    -3.2840 ca         1 XYW      -0.192500
     37 C37         -4.3460     4.5050    -2.0070 ca         1 XYW       0.298000
     38 F38         -3.4810     5.5270    -1.8340 f          1 XYW      -0.149000
     39 C39         -2.1250     0.3120     0.3900 ca         1 XYW      -0.096000
     40 N40         -2.9470    -4.7600     0.8580 nh         1 XYW      -0.759300
     41 C41         -2.8090    -6.2470     0.7040 c6         1 XYW       0.178300
     42 C42         -3.5920    -7.0360     1.7950 c6         1 XYW       0.142600
     43 O43         -4.9590    -6.5760     1.8830 os         1 XYW      -0.438000
     44 C44         -5.0480    -5.1770     2.2330 c6         1 XYW       0.142600
     45 C45         -4.3430    -4.2940     1.1650 c6         1 XYW       0.178300
     46 C46          5.9770     0.1770     0.3690 ca         1 XYW      -0.057000
     47 H11C         9.2030     0.2340     2.6330 h1         1 XYW       0.102367
     48 H12C         8.3200    -1.2860     2.2410 h1         1 XYW       0.102367
     49 H13C        10.0850    -1.1550     1.8990 h1         1 XYW       0.102367
     50 H6           8.0990     2.7880     1.0570 ha         1 XYW       0.142000
     51 H46          5.9930    -0.8770     0.1120 ha         1 XYW       0.170000
     52 H7           5.9250     3.9310     1.4070 ha         1 XYW       0.121000
     53 H8           3.7930     2.7000     1.0960 ha         1 XYW       0.117000
     54 H10          2.7400     0.6480     0.8830 hn         1 XYW       0.514000
     55 H13          4.0770    -2.9760    -2.6580 h4         1 XYW       0.029100
     56 H14          1.7140    -3.8110    -2.3140 ha         1 XYW       0.139000
     57 H23          0.1750    -0.3370    -2.0570 ha         1 XYW       0.122000
     58 H39         -2.7140    -0.1740     1.1620 ha         1 XYW       0.126000
     59 H24         -0.0740     2.0890    -2.3900 ha         1 XYW       0.124000
     60 H25         -1.6280     3.4000    -0.9880 ha         1 XYW       0.144000
     61 H27         -3.8290     1.8360     1.5660 hn         1 XYW       0.497000
     62 H34         -6.8690     1.6180    -2.6470 ha         1 XYW       0.140000
     63 H35         -6.2360     3.1460    -4.5160 ha         1 XYW       0.122000
     64 H36         -4.6180     4.9960    -4.0900 ha         1 XYW       0.140000
     65 H411        -3.1780    -6.5540    -0.2860 h1         1 XYW       0.063450
     66 H412        -1.7570    -6.5590     0.7650 h1         1 XYW       0.063450
     67 H451        -4.3450    -3.2580     1.5350 h1         1 XYW       0.063450
     68 H452        -4.9460    -4.3030     0.2450 h1         1 XYW       0.063450
     69 H421        -3.5860    -8.1090     1.5540 h1         1 XYW       0.059200
     70 H422        -3.1030    -6.9050     2.7710 h1         1 XYW       0.059200
     71 H441        -6.1060    -4.8910     2.3140 h1         1 XYW       0.059200
     72 H442        -4.5780    -5.0190     3.2150 h1         1 XYW       0.059200
@<TRIPOS>BOND
     1     1     2 1   
     2     1    47 1   
     3     1    48 1   
     4     1    49 1   
     5     2     3 2   
     6     2     4 2   
     7     2     5 1   
     8     5     6 ar  
     9     5    46 ar  
    10     6     7 ar  
    11     6    50 1   
    12     7     8 ar  
    13     7    52 1   
    14     8     9 ar  
    15     8    53 1   
    16     9    10 1   
    17     9    46 ar  
    18    10    11 1   
    19    10    54 1   
    20    11    12 ar  
    21    11    16 ar  
    22    12    13 ar  
    23    13    14 ar  
    24    13    55 1   
    25    14    15 ar  
    26    14    56 1   
    27    15    16 ar  
    28    15    17 1   
    29    17    18 1   
    30    17    21 2   
    31    18    19 1   
    32    19    20 2   
    33    19    40 1   
    34    20    21 1   
    35    21    22 1   
    36    22    23 ar  
    37    22    39 ar  
    38    23    24 ar  
    39    23    57 1   
    40    24    25 ar  
    41    24    59 1   
    42    25    26 ar  
    43    25    60 1   
    44    26    27 1   
    45    26    39 ar  
    46    27    28 1   
    47    27    61 1   
    48    28    29 2   
    49    28    30 2   
    50    28    31 1   
    51    31    32 ar  
    52    31    37 ar  
    53    32    33 1   
    54    32    34 ar  
    55    34    35 ar  
    56    34    62 1   
    57    35    36 ar  
    58    35    63 1   
    59    36    37 ar  
    60    36    64 1   
    61    37    38 1   
    62    39    58 1   
    63    40    41 1   
    64    40    45 1   
    65    41    42 1   
    66    41    65 1   
    67    41    66 1   
    68    42    43 1   
    69    42    69 1   
    70    42    70 1   
    71    43    44 1   
    72    44    45 1   
    73    44    71 1   
    74    44    72 1   
    75    45    67 1   
    76    45    68 1   
    77    46    51 1   
@<TRIPOS>SUBSTRUCTURE
     1 XYW         1 TEMP              0 ****  ****    0 ROOT
