@<TRIPOS>MOLECULE
XYW
   72    77     1     0     0
SMALL
abcg2


@<TRIPOS>ATOM
      1 C1           9.1150    -0.9680     1.5810 c3         1 XYW      -0.337100
      2 S2           8.8260     0.0950     0.1860 sy         1 XYW       1.053500
      3 O3           9.9000     1.0860     0.1340 o          1 XYW      -0.522500
      4 O4           8.5890    -0.7400    -0.9900 o          1 XYW      -0.522500
      5 C5           7.3150     0.9330     0.6030 ca         1 XYW      -0.234500
      6 C6           7.3860     2.1730     1.2120 ca         1 XYW      -0.052000
      7 C7           6.1890     2.7970     1.5390 ca         1 XYW      -0.095000
      8 C8           4.9800     2.1890     1.2670 ca         1 XYW      -0.123000
      9 C9           4.9200     0.9290     0.6550 ca         1 XYW       0.308000
     10 N10          3.6580     0.4100     0.4280 nu         1 XYW      -0.930900
     11 C11          3.2480    -0.8060    -0.0410 ca         1 XYW       0.388900
     12 N12          4.1410    -1.7040    -0.4410 nb         1 XYW      -0.229000
     13 C13          3.6400    -2.8530    -0.8800 ca         1 XYW       0.152900
     14 C14          2.2890    -3.1180    -0.9410 ca         1 XYW      -0.273000
     15 C15          1.4350    -2.1010    -0.4950 ca         1 XYW       0.270500
     16 N16          1.9270    -0.9600    -0.0340 nb         1 XYW      -0.245000
     17 C17         -0.0090    -2.2540    -0.4950 cc         1 XYW      -0.337500
     18 S18         -0.7140    -3.8480    -0.4050 ss         1 XYW      -0.075400
     19 C19         -2.2860    -3.1150    -0.2780 cc         1 XYW       0.727300
     20 N20         -2.2750    -1.8120    -0.3400 nd         1 XYW      -0.750000
     21 C21         -1.0150    -1.3200    -0.4620 cd         1 XYW       0.451500
     22 C22         -0.8850     0.1420    -0.5780 ca         1 XYW      -0.106500
     23 C23         -0.0480     0.7430    -1.5150 ca         1 XYW      -0.064000
     24 C24          0.0080     2.1230    -1.6180 ca         1 XYW      -0.113000
     25 C25         -0.7650     2.9260    -0.7910 ca         1 XYW      -0.069000
     26 C26         -1.6190     2.3290     0.1260 ca         1 XYW       0.216000
     27 N27         -2.4330     3.1390     0.9660 nu         1 XYW      -0.874100
     28 S28         -3.7970     3.8120     0.3090 sy         1 XYW       1.165600
     29 O29         -4.5360     4.3950     1.4100 o          1 XYW      -0.517500
     30 O30         -3.3870     4.6400    -0.8010 o          1 XYW      -0.517500
     31 C31         -4.7260     2.4320    -0.3320 ca         1 XYW      -0.389500
     32 C32         -5.2450     1.4950     0.5590 ca         1 XYW       0.298000
     33 F33         -4.9900     1.6510     1.8590 f          1 XYW      -0.149000
     34 C34         -5.9830     0.4070     0.1540 ca         1 XYW      -0.192500
     35 C35         -6.2080     0.2370    -1.2050 ca         1 XYW      -0.007000
     36 C36         -5.7010     1.1320    -2.1300 ca         1 XYW      -0.192500
     37 C37         -4.9670     2.2160    -1.6870 ca         1 XYW       0.298000
     38 F38         -4.4950     3.0580    -2.5960 f          1 XYW      -0.149000
     39 C39         -1.6900     0.9460     0.2230 ca         1 XYW      -0.096000
     40 N40         -3.4000    -3.8470    -0.1230 nh         1 XYW      -0.759300
     41 C41         -3.3900    -5.2910    -0.2690 c6         1 XYW       0.178300
     42 C42         -4.5230    -5.8970     0.5410 c6         1 XYW       0.142600
     43 O43         -5.7630    -5.3120     0.2240 os         1 XYW      -0.438000
     44 C44         -5.7470    -3.9300     0.5020 c6         1 XYW       0.142600
     45 C45         -4.6950    -3.2110    -0.3180 c6         1 XYW       0.178300
     46 C46          6.1160     0.2970     0.3100 ca         1 XYW      -0.057000
     47 H11C         9.1900    -0.3650     2.4840 h1         1 XYW       0.102367
     48 H12C         8.2980    -1.6810     1.6700 h1         1 XYW       0.102367
     49 H13C        10.0520    -1.4940     1.4030 h1         1 XYW       0.102367
     50 H6           8.3330     2.6480     1.4250 ha         1 XYW       0.142000
     51 H46          6.1000    -0.6660    -0.1760 ha         1 XYW       0.170000
     52 H7           6.2000     3.7700     2.0130 ha         1 XYW       0.121000
     53 H8           4.0590     2.6940     1.5330 ha         1 XYW       0.117000
     54 H10          2.8870     1.0000     0.7050 hn         1 XYW       0.514000
     55 H13          4.3580    -3.5950    -1.2090 h4         1 XYW       0.029100
     56 H14          1.9280    -4.0580    -1.3340 ha         1 XYW       0.139000
     57 H23          0.5500     0.1330    -2.1780 ha         1 XYW       0.122000
     58 H39         -2.3650     0.4860     0.9340 ha         1 XYW       0.126000
     59 H24          0.6610     2.5810    -2.3480 ha         1 XYW       0.124000
     60 H25         -0.7000     4.0030    -0.8560 ha         1 XYW       0.144000
     61 H27         -2.5970     2.7680     1.8960 hn         1 XYW       0.497000
     62 H34         -6.3690    -0.2890     0.8860 ha         1 XYW       0.140000
     63 H35         -6.7870    -0.6090    -1.5480 ha         1 XYW       0.122000
     64 H36         -5.8690     0.9990    -3.1900 ha         1 XYW       0.140000
     65 H411        -3.4790    -5.5680    -1.3260 h1         1 XYW       0.063450
     66 H412        -2.4520    -5.7030     0.1080 h1         1 XYW       0.063450
     67 H451        -4.6300    -2.1710    -0.0060 h1         1 XYW       0.063450
     68 H452        -4.9600    -3.2270    -1.3810 h1         1 XYW       0.063450
     69 H421        -4.5910    -6.9630     0.3230 h1         1 XYW       0.059200
     70 H422        -4.3050    -5.7830     1.6120 h1         1 XYW       0.059200
     71 H441        -6.7330    -3.5330     0.2580 h1         1 XYW       0.059200
     72 H442        -5.5650    -3.7540     1.5710 h1         1 XYW       0.059200
@<TRIPOS>BOND
     1     1     2 1   
     2     1    47 1   
     3     1    48 1   
     4     1    49 1   
     5     2     3 2   
     6     2     4 2   
     7     2     5 1   
     8     5     6 ar  
     9     5    46 ar  
    10     6     7 ar  
    11     6    50 1   
    12     7     8 ar  
    13     7    52 1   
    14     8     9 ar  
    15     8    53 1   
    16     9    10 1   
    17     9    46 ar  
    18    10    11 1   
    19    10    54 1   
    20    11    12 ar  
    21    11    16 ar  
    22    12    13 ar  
    23    13    14 ar  
    24    13    55 1   
    25    14    15 ar  
    26    14    56 1   
    27    15    16 ar  
    28    15    17 1   
    29    17    18 1   
    30    17    21 2   
    31    18    19 1   
    32    19    20 2   
    33    19    40 1   
    34    20    21 1   
    35    21    22 1   
    36    22    23 ar  
    37    22    39 ar  
    38    23    24 ar  
    39    23    57 1   
    40    24    25 ar  
    41    24    59 1   
    42    25    26 ar  
    43    25    60 1   
    44    26    27 1   
    45    26    39 ar  
    46    27    28 1   
    47    27    61 1   
    48    28    29 2   
    49    28    30 2   
    50    28    31 1   
    51    31    32 ar  
    52    31    37 ar  
    53    32    33 1   
    54    32    34 ar  
    55    34    35 ar  
    56    34    62 1   
    57    35    36 ar  
    58    35    63 1   
    59    36    37 ar  
    60    36    64 1   
    61    37    38 1   
    62    39    58 1   
    63    40    41 1   
    64    40    45 1   
    65    41    42 1   
    66    41    65 1   
    67    41    66 1   
    68    42    43 1   
    69    42    69 1   
    70    42    70 1   
    71    43    44 1   
    72    44    45 1   
    73    44    71 1   
    74    44    72 1   
    75    45    67 1   
    76    45    68 1   
    77    46    51 1   
@<TRIPOS>SUBSTRUCTURE
     1 XYW         1 TEMP              0 ****  ****    0 ROOT
