@<TRIPOS>MOLECULE
XYY
   49    51     1     0     0
SMALL
No Charge or Current Charge


@<TRIPOS>ATOM
      1 C1           4.6470     1.4290     0.0540 c3         1 XYY       0.189100
      2 Cl1          2.7970     2.9380    -2.3990 cl         1 XYY      -0.251000
      3 N2           3.5990     1.4950     1.0920 n3         1 XYY      -0.753500
      4 C3           2.3360     2.1240     0.6310 c3         1 XYY       0.266100
      5 C4           1.5790     1.3520    -0.4590 ca         1 XYY      -0.139300
      6 C5           0.6630     0.3440    -0.0830 ca         1 XYY      -0.100000
      7 C6          -0.0680    -0.3860    -1.0430 ca         1 XYY      -0.016300
      8 C7           0.1050    -0.0720    -2.4070 ca         1 XYY      -0.061000
      9 C8           0.9970     0.9400    -2.7940 ca         1 XYY      -0.115000
     10 C9           1.7290     1.6530    -1.8320 ca         1 XYY       0.124000
     11 C11         -1.0630    -1.4510    -0.5530 c3         1 XYY       0.034900
     12 C12         -1.2910    -2.6650    -1.5020 c3         1 XYY      -0.210400
     13 C13          0.0070    -3.4670    -1.6870 c          1 XYY       0.712000
     14 O14          0.2890    -4.3020    -0.8410 o          1 XYY      -0.728500
     15 O15          0.7050    -3.2270    -2.6590 o          1 XYY      -0.728500
     16 C16         -2.3870    -0.7760    -0.1860 ca         1 XYY      -0.082300
     17 C17         -3.2110    -0.2050    -1.1940 ca         1 XYY      -0.056000
     18 C18         -4.4260     0.4270    -0.8570 ca         1 XYY      -0.135000
     19 C19         -4.7770     0.4680     0.4980 ca         1 XYY      -0.089200
     20 N20         -5.8610     0.9970     1.1330 na         1 XYY       0.059600
     21 C21         -6.9840     1.6890     0.4870 c3         1 XYY       0.079900
     22 N22         -5.7430     0.7820     2.4980 nc         1 XYY      -0.192400
     23 N23         -4.5990     0.1270     2.7140 nd         1 XYY      -0.223400
     24 C24         -4.0030    -0.0670     1.4740 ca         1 XYY       0.018400
     25 C25         -2.7910    -0.7010     1.1710 ca         1 XYY      -0.034000
     26 S26          3.4320     0.0790     2.0540 s6         1 XYY       1.195100
     27 O27          2.3550     0.3470     3.0120 o          1 XYY      -0.533000
     28 O28          3.3500    -1.0720     1.1500 o          1 XYY      -0.533000
     29 C29          4.9500     0.0150     2.9950 c3         1 XYY      -0.353100
     30 H11         -0.6400    -1.8830     0.3650 hc         1 XYY       0.094700
     31 H1           4.3790     0.7140    -0.7360 h1         1 XYY       0.048033
     32 H1A          4.7950     2.4130    -0.4100 h1         1 XYY       0.048033
     33 H1B          5.6120     1.1240     0.4780 h1         1 XYY       0.048033
     34 H3           1.6570     2.2710     1.4820 h1         1 XYY       0.071200
     35 H3A          2.5470     3.1370     0.2680 h1         1 XYY       0.071200
     36 H5           0.5100     0.1280     0.9720 ha         1 XYY       0.125000
     37 H7          -0.4530    -0.5970    -3.1770 ha         1 XYY       0.156000
     38 H8           1.1160     1.1790    -3.8470 ha         1 XYY       0.122000
     39 H12         -2.0260    -3.2870    -0.9780 hc         1 XYY       0.026200
     40 H12A        -1.6610    -2.2890    -2.4610 hc         1 XYY       0.026200
     41 H17         -2.9070    -0.2480    -2.2370 ha         1 XYY       0.123000
     42 H18         -5.0610     0.8660    -1.6240 ha         1 XYY       0.112000
     43 H21         -7.7120     2.0050     1.2440 h1         1 XYY       0.051700
     44 H21A        -6.6100     2.5700    -0.0480 h1         1 XYY       0.051700
     45 H21B        -7.4700     1.0100    -0.2240 h1         1 XYY       0.051700
     46 H25         -2.1810    -1.1220     1.9670 ha         1 XYY       0.141000
     47 H29          5.7760    -0.1530     2.2980 h1         1 XYY       0.096033
     48 H29A         5.0530     0.9710     3.5170 h1         1 XYY       0.096033
     49 H29B         4.8600    -0.8150     3.7030 h1         1 XYY       0.096033
@<TRIPOS>BOND
     1     1     3 1   
     2     1    31 1   
     3     1    32 1   
     4     1    33 1   
     5     2    10 1   
     6     3     4 1   
     7     3    26 1   
     8     4     5 1   
     9     4    34 1   
    10     4    35 1   
    11     5     6 ar  
    12     5    10 ar  
    13     6     7 ar  
    14     6    36 1   
    15     7     8 ar  
    16     7    11 1   
    17     8     9 ar  
    18     8    37 1   
    19     9    10 ar  
    20     9    38 1   
    21    11    12 1   
    22    11    16 1   
    23    11    30 1   
    24    12    13 1   
    25    12    39 1   
    26    12    40 1   
    27    13    14 1   
    28    13    15 1   
    29    16    17 ar  
    30    16    25 ar  
    31    17    18 ar  
    32    17    41 1   
    33    18    19 ar  
    34    18    42 1   
    35    19    20 1   
    36    19    24 ar  
    37    20    21 1   
    38    20    22 1   
    39    21    43 1   
    40    21    44 1   
    41    21    45 1   
    42    22    23 2   
    43    23    24 1   
    44    24    25 ar  
    45    25    46 1   
    46    26    27 2   
    47    26    28 2   
    48    26    29 1   
    49    29    47 1   
    50    29    48 1   
    51    29    49 1   
@<TRIPOS>SUBSTRUCTURE
     1 XYY         1 TEMP              0 ****  ****    0 ROOT
