@<TRIPOS>MOLECULE
XYY
   49    51     1     0     0
SMALL
bcc


@<TRIPOS>ATOM
      1 C1           4.4110     1.0310     0.2880 c3         1 XYY       0.189100
      2 CL1          3.0240     2.6040    -2.6500 cl         1 XYY      -0.159400
      3 N2           3.2490     1.4270     1.0700 n3         1 XYY      -0.753500
      4 C3           2.1810     2.0910     0.3280 c3         1 XYY       0.266100
      5 C4           1.5730     1.2490    -0.7720 ca         1 XYY      -0.139300
      6 C5           0.6510     0.2630    -0.4400 ca         1 XYY      -0.118000
      7 C6           0.0450    -0.5590    -1.3850 ca         1 XYY      -0.016300
      8 C7           0.3900    -0.3800    -2.7190 ca         1 XYY      -0.079000
      9 C8           1.3060     0.5930    -3.0880 ca         1 XYY      -0.133000
     10 C9           1.8880     1.3970    -2.1210 ca         1 XYY       0.032400
     11 C11         -0.9750    -1.5770    -0.9120 c3         1 XYY       0.034900
     12 C12         -1.4460    -2.5450    -1.9950 c3         1 XYY      -0.210400
     13 C13         -0.3440    -3.4490    -2.5770 c          1 XYY       0.922600
     14 O14          0.5960    -3.7530    -1.8170 o          1 XYY      -0.833800
     15 O15         -0.5040    -3.8300    -3.7540 o          1 XYY      -0.833800
     16 C16         -2.1550    -0.8650    -0.2850 ca         1 XYY      -0.082300
     17 C17         -2.9050     0.0500    -1.0680 ca         1 XYY      -0.074000
     18 C18         -4.0070     0.7150    -0.5870 ca         1 XYY      -0.153000
     19 C19         -4.3560     0.4450     0.7390 ca         1 XYY      -0.089200
     20 N20         -5.3380     0.8850     1.5590 na         1 XYY       0.088900
     21 C21         -6.4120     1.8000     1.2600 c3         1 XYY       0.050600
     22 N22         -5.2260     0.3120     2.7510 nc         1 XYY      -0.192400
     23 N23         -4.2210    -0.4800     2.7630 nd         1 XYY      -0.223400
     24 C24         -3.6330    -0.4440     1.5330 ca         1 XYY       0.018400
     25 C25         -2.5130    -1.1130     1.0200 ca         1 XYY      -0.052000
     26 S26          2.8600     0.4440     2.3470 s6         1 XYY       1.225900
     27 O27          1.5360     0.8340     2.8200 o          1 XYY      -0.603800
     28 O28          3.0910    -0.9570     2.0180 o          1 XYY      -0.603800
     29 C29          4.0470     0.9210     3.5790 c3         1 XYY      -0.242300
     30 H11         -0.4930    -2.1750    -0.1340 hc         1 XYY       0.094700
     31 H1           4.1880     0.2540    -0.4460 h1         1 XYY       0.048033
     32 H1A          4.7850     1.9100    -0.2340 h1         1 XYY       0.048033
     33 H1B          5.2130     0.6730     0.9310 h1         1 XYY       0.048033
     34 H3           1.4020     2.3990     1.0220 h1         1 XYY       0.071200
     35 H3A          2.6100     3.0080    -0.0750 h1         1 XYY       0.071200
     36 H5           0.3770     0.1460     0.6020 ha         1 XYY       0.143000
     37 H7          -0.0440    -0.9960    -3.4950 ha         1 XYY       0.174000
     38 H8           1.5670     0.7220    -4.1300 ha         1 XYY       0.140000
     39 H12         -2.2000    -3.1990    -1.5430 hc         1 XYY       0.026200
     40 H12A        -1.9670    -2.0110    -2.7940 hc         1 XYY       0.026200
     41 H17         -2.5940     0.2350    -2.0890 ha         1 XYY       0.141000
     42 H18         -4.5630     1.4090    -1.2040 ha         1 XYY       0.130000
     43 H21         -6.9250     2.0420     2.1860 h1         1 XYY       0.051700
     44 H21A        -6.0120     2.7130     0.8230 h1         1 XYY       0.051700
     45 H21B        -7.1170     1.3490     0.5650 h1         1 XYY       0.051700
     46 H25         -1.9500    -1.8040     1.6350 ha         1 XYY       0.159000
     47 H29          5.0590     0.7400     3.2230 h1         1 XYY       0.096033
     48 H29A         3.9110     1.9740     3.8120 h1         1 XYY       0.096033
     49 H29B         3.8600     0.3110     4.4620 h1         1 XYY       0.096033
@<TRIPOS>BOND
     1     1     3 1   
     2     1    31 1   
     3     1    32 1   
     4     1    33 1   
     5     2    10 1   
     6     3     4 1   
     7     3    26 1   
     8     4     5 1   
     9     4    34 1   
    10     4    35 1   
    11     5     6 ar  
    12     5    10 ar  
    13     6     7 ar  
    14     6    36 1   
    15     7     8 ar  
    16     7    11 1   
    17     8     9 ar  
    18     8    37 1   
    19     9    10 ar  
    20     9    38 1   
    21    11    12 1   
    22    11    16 1   
    23    11    30 1   
    24    12    13 1   
    25    12    39 1   
    26    12    40 1   
    27    13    14 1   
    28    13    15 1   
    29    16    17 ar  
    30    16    25 ar  
    31    17    18 ar  
    32    17    41 1   
    33    18    19 ar  
    34    18    42 1   
    35    19    20 1   
    36    19    24 ar  
    37    20    21 1   
    38    20    22 1   
    39    21    43 1   
    40    21    44 1   
    41    21    45 1   
    42    22    23 2   
    43    23    24 1   
    44    24    25 ar  
    45    25    46 1   
    46    26    27 2   
    47    26    28 2   
    48    26    29 1   
    49    29    47 1   
    50    29    48 1   
    51    29    49 1   
@<TRIPOS>SUBSTRUCTURE
     1 XYY         1 TEMP              0 ****  ****    0 ROOT
