@<TRIPOS>MOLECULE
XYZ
   20    20     1     0     0
SMALL
bcc


@<TRIPOS>ATOM
      1 C4           0.8260    -0.2450     0.5830 c5         1 XYZ       0.156100
      2 O            0.1940     1.0300     0.6900 os         1 XYZ      -0.416600
      3 C1          -1.0950     1.0010     0.1370 c5         1 XYZ       0.304900
      4 C2          -1.5050    -0.4720     0.1810 c5         1 XYZ       0.083100
      5 O2          -1.8940    -0.8480     1.4790 oh         1 XYZ      -0.586800
      6 C3          -0.1780    -1.1770    -0.1060 c5         1 XYZ       0.125100
      7 O3           0.0990    -1.2660    -1.4790 oh         1 XYZ      -0.575800
      8 C5           2.1640    -0.1340    -0.1150 c3         1 XYZ       0.134400
      9 O5           3.0220     0.6260     0.7090 oh         1 XYZ      -0.593800
     10 O1          -1.1230     1.4400    -1.1830 oh         1 XYZ      -0.601800
     11 H4           1.0020    -0.6170     1.5990 h1         1 XYZ       0.076700
     12 H1          -1.7330     1.6310     0.7710 h2         1 XYZ       0.054700
     13 H2          -2.2760    -0.7060    -0.5630 h1         1 XYZ       0.064700
     14 HO2         -2.6830    -0.3540     1.7240 ho         1 XYZ       0.412000
     15 H3          -0.1620    -2.1670     0.3650 h1         1 XYZ       0.062700
     16 HO3         -0.5140    -1.8950    -1.8700 ho         1 XYZ       0.408000
     17 H51          2.0370     0.3270    -1.1000 h1         1 XYZ       0.036200
     18 H52          2.5560    -1.1470    -0.2760 h1         1 XYZ       0.036200
     19 H5           3.8640     0.7170     0.2540 ho         1 XYZ       0.401000
     20 HO1         -1.0000     2.3950    -1.1950 ho         1 XYZ       0.419000
@<TRIPOS>BOND
     1     1     2 1   
     2     1     6 1   
     3     1     8 1   
     4     1    11 1   
     5     2     3 1   
     6     3     4 1   
     7     3    10 1   
     8     3    12 1   
     9     4     5 1   
    10     4     6 1   
    11     4    13 1   
    12     5    14 1   
    13     6     7 1   
    14     6    15 1   
    15     7    16 1   
    16     8     9 1   
    17     8    17 1   
    18     8    18 1   
    19     9    19 1   
    20    10    20 1   
@<TRIPOS>SUBSTRUCTURE
     1 XYZ         1 TEMP              0 ****  ****    0 ROOT
