@<TRIPOS>MOLECULE
XYZ
   20    20     1     0     0
SMALL
No Charge or Current Charge


@<TRIPOS>ATOM
      1 C4           0.7720    -0.1340     0.5570 c5         1 XYZ       0.179300
      2 O            0.1140     1.1630     0.7040 os         1 XYZ      -0.463000
      3 C1          -1.2430     1.0590     0.2370 c5         1 XYZ       0.351300
      4 C2          -1.5650    -0.4860     0.2990 c5         1 XYZ       0.106300
      5 O2          -1.8080    -0.9740     1.6380 oh         1 XYZ      -0.709000
      6 C3          -0.2130    -1.0230    -0.2820 c5         1 XYZ       0.148300
      7 O3          -0.1040    -0.7970    -1.7080 oh         1 XYZ      -0.698000
      8 C5           2.2020     0.0220    -0.0400 c3         1 XYZ       0.157600
      9 O5           3.1190     0.5980     0.9130 oh         1 XYZ      -0.716000
     10 O1          -1.2660     1.5430    -1.0940 oh         1 XYZ      -0.724000
     11 H4           0.8770    -0.5710     1.5600 h1         1 XYZ       0.076700
     12 H1          -1.9190     1.6490     0.8700 h2         1 XYZ       0.054700
     13 H2          -2.4080    -0.7440    -0.3580 h1         1 XYZ       0.064700
     14 HO2         -2.6860    -0.6250     1.9260 ho         1 XYZ       0.511000
     15 H3          -0.0730    -2.0880    -0.0510 h1         1 XYZ       0.062700
     16 HO3         -0.1160    -1.6840    -2.1450 ho         1 XYZ       0.507000
     17 H51          2.1440     0.6420    -0.9450 h1         1 XYZ       0.036200
     18 H52          2.5580    -0.9720    -0.3440 h1         1 XYZ       0.036200
     19 H5           3.9770     0.7290     0.4440 ho         1 XYZ       0.500000
     20 HO1         -0.7640     0.8310    -1.5750 ho         1 XYZ       0.518000
@<TRIPOS>BOND
     1     1     2 1   
     2     1     6 1   
     3     1     8 1   
     4     1    11 1   
     5     2     3 1   
     6     3     4 1   
     7     3    10 1   
     8     3    12 1   
     9     4     5 1   
    10     4     6 1   
    11     4    13 1   
    12     5    14 1   
    13     6     7 1   
    14     6    15 1   
    15     7    16 1   
    16     8     9 1   
    17     8    17 1   
    18     8    18 1   
    19     9    19 1   
    20    10    20 1   
@<TRIPOS>SUBSTRUCTURE
     1 XYZ         1 TEMP              0 ****  ****    0 ROOT
