@<TRIPOS>MOLECULE
XZ0
   55    58     1     0     0
SMALL
No Charge or Current Charge


@<TRIPOS>ATOM
      1 C10        -26.5120   -22.6970    35.6200 c6         1 XZ0       0.216300
      2 N15        -24.7820   -20.7420    34.3310 nb         1 XZ0      -0.748000
      3 C16        -23.7070   -20.2100    33.7120 ca         1 XZ0       0.395900
      4 C17        -22.5320   -19.8660    34.3900 ca         1 XZ0      -0.219000
      5 C18        -22.4670   -20.0830    35.7670 ca         1 XZ0       0.193000
      6 C19        -23.5750   -20.6320    36.4150 ca         1 XZ0      -0.234000
      7 C25        -32.1990   -28.3470    35.2450 ca         1 XZ0       0.118000
      8 C01        -32.1690   -22.4930    40.8140 c3         1 XZ0      -0.089100
      9 C02        -31.7820   -22.4250    39.3180 c6         1 XZ0       0.164300
     10 C04        -32.1740   -23.5530    37.2360 c6         1 XZ0       0.156600
     11 C05        -30.6420   -23.7370    36.9820 c6         1 XZ0       0.155500
     12 C07        -30.2370   -22.5060    39.0970 c6         1 XZ0       0.137800
     13 C08        -28.3780   -22.6300    37.3920 c6         1 XZ0       0.197500
     14 C09        -28.0340   -22.7190    35.8750 c6         1 XZ0      -0.088400
     15 C12        -26.1550   -21.3550    37.6750 c6         1 XZ0       0.216300
     16 C13        -27.6730   -21.3660    37.9660 c6         1 XZ0      -0.088400
     17 C14        -24.7140   -20.9460    35.6580 ca         1 XZ0       0.629900
     18 C22        -30.8850   -26.2910    36.6530 ca         1 XZ0      -0.076300
     19 C23        -30.5770   -26.5340    35.2990 ca         1 XZ0      -0.101000
     20 C24        -31.2330   -27.5600    34.5970 ca         1 XZ0      -0.102000
     21 C26        -32.5100   -28.1110    36.5940 ca         1 XZ0      -0.102000
     22 C27        -31.8540   -27.0850    37.2970 ca         1 XZ0      -0.101000
     23 N06        -29.8690   -22.6110    37.6390 n3         1 XZ0      -0.731600
     24 N11        -25.8790   -21.4940    36.2230 nh         1 XZ0      -0.770300
     25 O03        -32.4540   -23.5170    38.6550 os         1 XZ0      -0.450000
     26 H1         -26.0620   -23.6070    36.0460 h1         1 XZ0       0.048950
     27 H2         -26.3470   -22.7370    34.5330 h1         1 XZ0       0.048950
     28 H3         -23.7920   -20.0550    32.6370 h4         1 XZ0       0.019100
     29 H4         -21.6920   -19.4410    33.8510 ha         1 XZ0       0.140000
     30 H5         -23.5390   -20.8200    37.4820 ha         1 XZ0       0.135000
     31 H8         -31.7180   -21.6650    41.3730 hc         1 XZ0       0.044700
     32 H9         -33.2560   -22.4280    40.9430 hc         1 XZ0       0.044700
     33 H10        -31.8300   -23.4300    41.2710 hc         1 XZ0       0.044700
     34 H11        -32.1570   -21.4780    38.9030 h1         1 XZ0       0.043700
     35 H12        -32.5150   -22.6140    36.7780 h1         1 XZ0       0.056200
     36 H13        -32.7450   -24.3720    36.7760 h1         1 XZ0       0.056200
     37 H14        -30.5220   -23.6750    35.8910 h1         1 XZ0       0.065700
     38 H15        -29.8340   -23.3610    39.6580 h1         1 XZ0       0.038700
     39 H16        -29.8120   -21.5990    39.5470 h1         1 XZ0       0.038700
     40 H17        -27.9360   -23.5030    37.8920 h1         1 XZ0       0.022700
     41 H18        -28.5070   -21.8870    35.3360 hc         1 XZ0       0.057700
     42 H19        -28.4220   -23.6440    35.4350 hc         1 XZ0       0.057700
     43 H20        -25.6720   -22.1720    38.2310 h1         1 XZ0       0.048950
     44 H21        -25.7450   -20.4080    38.0560 h1         1 XZ0       0.048950
     45 H22        -28.1330   -20.4610    37.5460 hc         1 XZ0       0.057700
     46 H23        -27.7900   -21.3070    39.0540 hc         1 XZ0       0.057700
     47 H24        -29.8290   -25.9290    34.7910 ha         1 XZ0       0.118500
     48 H25        -30.9940   -27.7450    33.5530 ha         1 XZ0       0.129500
     49 H26        -33.2590   -28.7210    37.0930 ha         1 XZ0       0.129500
     50 H27        -32.1040   -26.9050    38.3400 ha         1 XZ0       0.118500
     51 Cl20       -21.0150   -19.6770    36.6700 cl         1 XZ0      -0.198000
     52 C21        -30.1760   -25.1720    37.4080 c3         1 XZ0      -0.062100
     53 Cl28       -33.0210   -29.6300    34.3660 cl         1 XZ0      -0.206000
     54 H6         -30.3170   -25.3080    38.4870 hc         1 XZ0       0.055200
     55 H7         -29.1000   -25.2860    37.2410 hc         1 XZ0       0.055200
@<TRIPOS>BOND
     1     1    14 1   
     2     1    24 1   
     3     1    26 1   
     4     1    27 1   
     5     2     3 ar  
     6     2    17 ar  
     7     3     4 ar  
     8     3    28 1   
     9     4     5 ar  
    10     4    29 1   
    11     5     6 ar  
    12     5    51 1   
    13     6    17 ar  
    14     6    30 1   
    15     7    20 ar  
    16     7    21 ar  
    17     7    53 1   
    18     8     9 1   
    19     8    31 1   
    20     8    32 1   
    21     8    33 1   
    22     9    12 1   
    23     9    25 1   
    24     9    34 1   
    25    10    11 1   
    26    10    25 1   
    27    10    35 1   
    28    10    36 1   
    29    11    23 1   
    30    11    37 1   
    31    11    52 1   
    32    12    23 1   
    33    12    38 1   
    34    12    39 1   
    35    13    14 1   
    36    13    16 1   
    37    13    23 1   
    38    13    40 1   
    39    14    41 1   
    40    14    42 1   
    41    15    16 1   
    42    15    24 1   
    43    15    43 1   
    44    15    44 1   
    45    16    45 1   
    46    16    46 1   
    47    17    24 1   
    48    18    19 ar  
    49    18    22 ar  
    50    18    52 1   
    51    19    20 ar  
    52    19    47 1   
    53    20    48 1   
    54    21    22 ar  
    55    21    49 1   
    56    22    50 1   
    57    52    54 1   
    58    52    55 1   
@<TRIPOS>SUBSTRUCTURE
     1 XZ0         1 TEMP              0 ****  ****    0 ROOT
