@<TRIPOS>MOLECULE
XZ0
   55    58     1     0     0
SMALL
abcg2


@<TRIPOS>ATOM
      1 C10        -26.5880   -22.7500    35.6860 c6         1 XZ0       0.216300
      2 N15        -24.6160   -21.3630    34.3810 nb         1 XZ0      -0.748000
      3 C16        -23.5550   -20.8680    33.7660 ca         1 XZ0       0.395900
      4 C17        -22.6090   -20.0530    34.3610 ca         1 XZ0      -0.219000
      5 C18        -22.8140   -19.7770    35.7050 ca         1 XZ0       0.193000
      6 C19        -23.9030   -20.2740    36.3840 ca         1 XZ0      -0.234000
      7 C25        -32.1710   -28.1250    35.0750 ca         1 XZ0       0.118000
      8 C01        -32.0000   -22.5410    40.8300 c3         1 XZ0      -0.089100
      9 C02        -31.6440   -22.4820    39.3600 c6         1 XZ0       0.164300
     10 C04        -32.0600   -23.4920    37.3130 c6         1 XZ0       0.156600
     11 C05        -30.5820   -23.7490    37.0600 c6         1 XZ0       0.155500
     12 C07        -30.1440   -22.6330    39.1390 c6         1 XZ0       0.137800
     13 C08        -28.3840   -22.6920    37.4530 c6         1 XZ0       0.197500
     14 C09        -28.0800   -22.8040    35.9630 c6         1 XZ0      -0.088400
     15 C12        -26.2440   -21.3460    37.6470 c6         1 XZ0       0.216300
     16 C13        -27.7350   -21.3980    37.9420 c6         1 XZ0      -0.088400
     17 C14        -24.8240   -21.0700    35.6680 ca         1 XZ0       0.629900
     18 C22        -30.8560   -26.2300    36.6390 ca         1 XZ0      -0.076300
     19 C23        -30.4750   -26.4590    35.3180 ca         1 XZ0      -0.101000
     20 C24        -31.1220   -27.3990    34.5320 ca         1 XZ0      -0.102000
     21 C26        -32.5740   -27.9220    36.3850 ca         1 XZ0      -0.102000
     22 C27        -31.9140   -26.9750    37.1540 ca         1 XZ0      -0.101000
     23 N06        -29.8210   -22.6940    37.7220 n3         1 XZ0      -0.731600
     24 N11        -25.9640   -21.5610    36.2430 nh         1 XZ0      -0.770300
     25 O03        -32.3630   -23.4950    38.6860 os         1 XZ0      -0.450000
     26 H1         -26.1090   -23.6470    36.1040 h1         1 XZ0       0.048950
     27 H2         -26.4210   -22.7680    34.6140 h1         1 XZ0       0.048950
     28 H3         -23.4440   -21.1370    32.7210 h4         1 XZ0       0.019100
     29 H4         -21.7610   -19.6730    33.8110 ha         1 XZ0       0.140000
     30 H5         -24.0140   -20.0670    37.4370 ha         1 XZ0       0.135000
     31 H8         -31.4830   -21.7510    41.3750 hc         1 XZ0       0.044700
     32 H9         -33.0710   -22.4030    40.9810 hc         1 XZ0       0.044700
     33 H10        -31.7110   -23.4980    41.2670 hc         1 XZ0       0.044700
     34 H11        -31.9410   -21.5020    38.9520 h1         1 XZ0       0.043700
     35 H12        -32.3300   -22.5280    36.8590 h1         1 XZ0       0.056200
     36 H13        -32.6720   -24.2630    36.8410 h1         1 XZ0       0.056200
     37 H14        -30.4470   -23.6480    35.9800 h1         1 XZ0       0.065700
     38 H15        -29.7720   -23.5090    39.6970 h1         1 XZ0       0.038700
     39 H16        -29.6710   -21.7590    39.5880 h1         1 XZ0       0.038700
     40 H17        -27.8800   -23.5320    37.9660 h1         1 XZ0       0.022700
     41 H18        -28.5900   -21.9970    35.4280 hc         1 XZ0       0.057700
     42 H19        -28.4360   -23.7460    35.5420 hc         1 XZ0       0.057700
     43 H20        -25.7150   -22.0840    38.2660 h1         1 XZ0       0.048950
     44 H21        -25.8890   -20.3620    37.9490 h1         1 XZ0       0.048950
     45 H22        -28.2380   -20.5500    37.4670 hc         1 XZ0       0.057700
     46 H23        -27.8400   -21.2720    39.0200 hc         1 XZ0       0.057700
     47 H24        -29.6520   -25.8950    34.8920 ha         1 XZ0       0.118500
     48 H25        -30.8100   -27.5640    33.5090 ha         1 XZ0       0.129500
     49 H26        -33.3920   -28.4930    36.8040 ha         1 XZ0       0.129500
     50 H27        -32.2330   -26.8140    38.1770 ha         1 XZ0       0.118500
     51 CL20       -21.6660   -18.8050    36.5570 cl         1 XZ0      -0.198000
     52 C21        -30.1640   -25.1830    37.4620 c3         1 XZ0      -0.062100
     53 CL28       -32.9890   -29.3070    34.1010 cl         1 XZ0      -0.206000
     54 H6         -30.3690   -25.3520    38.5200 hc         1 XZ0       0.055200
     55 H7         -29.0830   -25.2880    37.3360 hc         1 XZ0       0.055200
@<TRIPOS>BOND
     1     1    14 1   
     2     1    24 1   
     3     1    26 1   
     4     1    27 1   
     5     2     3 ar  
     6     2    17 ar  
     7     3     4 ar  
     8     3    28 1   
     9     4     5 ar  
    10     4    29 1   
    11     5     6 ar  
    12     5    51 1   
    13     6    17 ar  
    14     6    30 1   
    15     7    20 ar  
    16     7    21 ar  
    17     7    53 1   
    18     8     9 1   
    19     8    31 1   
    20     8    32 1   
    21     8    33 1   
    22     9    12 1   
    23     9    25 1   
    24     9    34 1   
    25    10    11 1   
    26    10    25 1   
    27    10    35 1   
    28    10    36 1   
    29    11    23 1   
    30    11    37 1   
    31    11    52 1   
    32    12    23 1   
    33    12    38 1   
    34    12    39 1   
    35    13    14 1   
    36    13    16 1   
    37    13    23 1   
    38    13    40 1   
    39    14    41 1   
    40    14    42 1   
    41    15    16 1   
    42    15    24 1   
    43    15    43 1   
    44    15    44 1   
    45    16    45 1   
    46    16    46 1   
    47    17    24 1   
    48    18    19 ar  
    49    18    22 ar  
    50    18    52 1   
    51    19    20 ar  
    52    19    47 1   
    53    20    48 1   
    54    21    22 ar  
    55    21    49 1   
    56    22    50 1   
    57    52    54 1   
    58    52    55 1   
@<TRIPOS>SUBSTRUCTURE
     1 XZ0         1 TEMP              0 ****  ****    0 ROOT
