@<TRIPOS>MOLECULE
XZ1
   33    35     1     0     0
SMALL
abcg2


@<TRIPOS>ATOM
      1 F1          -6.0580    -1.2940     0.2410 f          1 XZ1      -0.161000
      2 C13         -4.7310    -1.1400     0.2040 ca         1 XZ1       0.150000
      3 C14         -3.9060    -2.2430     0.1100 ca         1 XZ1      -0.114000
      4 C15         -2.5370    -2.0670     0.0740 ca         1 XZ1      -0.148000
      5 C12         -4.1860     0.1280     0.2600 ca         1 XZ1       0.095000
      6 CL1         -5.2370     1.4900     0.3760 cl         1 XZ1      -0.169000
      7 C11         -2.8130     0.3190     0.2260 ca         1 XZ1      -0.100000
      8 C10         -1.9690    -0.7890     0.1320 ca         1 XZ1       0.303000
      9 N1          -0.5780    -0.7310     0.0860 nu         1 XZ1      -0.928900
     10 C8           0.2720     0.3240     0.1370 ca         1 XZ1       0.406900
     11 N2          -0.2050     1.5440     0.2580 nb         1 XZ1      -0.273000
     12 C7           0.6710     2.5570     0.3050 ca         1 XZ1       0.165900
     13 C4           1.6840     0.0880     0.0570 ca         1 XZ1      -0.163000
     14 C5           2.2890    -1.1790    -0.0750 ca         1 XZ1      -0.114000
     15 C6           3.6500    -1.3000    -0.1410 ca         1 XZ1       0.121100
     16 O1           4.2070    -2.5150    -0.2650 oh         1 XZ1      -0.532100
     17 C3           2.4930     1.2380     0.1180 ca         1 XZ1       0.058000
     18 N3           1.9680     2.4860     0.2440 nb         1 XZ1      -0.200000
     19 C2           3.8950     1.1050     0.0470 ca         1 XZ1      -0.162000
     20 C1           4.4670    -0.1330    -0.0800 ca         1 XZ1       0.096100
     21 O2           5.7790    -0.3860    -0.1570 os         1 XZ1      -0.364100
     22 C9           6.6880     0.7010    -0.1040 c3         1 XZ1       0.153900
     23 H1          -4.3320    -3.2370     0.0660 ha         1 XZ1       0.136000
     24 H2          -1.8990    -2.9390     0.0010 ha         1 XZ1       0.117000
     25 H3          -2.4100     1.3170     0.2720 ha         1 XZ1       0.173000
     26 H4          -0.1480    -1.6370    -0.0010 hn         1 XZ1       0.501000
     27 H5           0.2330     3.5440     0.4060 h5         1 XZ1       0.049100
     28 H6           1.7080    -2.0920    -0.1270 ha         1 XZ1       0.125000
     29 H7           5.1700    -2.4440    -0.2830 ho         1 XZ1       0.488000
     30 H8           4.4930     2.0050     0.0960 ha         1 XZ1       0.142000
     31 H9           7.6830     0.2740    -0.1940 h1         1 XZ1       0.049367
     32 H10          6.5210     1.4010    -0.9250 h1         1 XZ1       0.049367
     33 H11          6.6130     1.2370     0.8450 h1         1 XZ1       0.049367
@<TRIPOS>BOND
     1     1     2 1   
     2     2     3 ar  
     3     2     5 ar  
     4     3     4 ar  
     5     3    23 1   
     6     4     8 ar  
     7     4    24 1   
     8     5     6 1   
     9     5     7 ar  
    10     7     8 ar  
    11     7    25 1   
    12     8     9 1   
    13     9    10 1   
    14     9    26 1   
    15    10    11 ar  
    16    10    13 ar  
    17    11    12 ar  
    18    12    18 ar  
    19    12    27 1   
    20    13    14 ar  
    21    13    17 ar  
    22    14    15 ar  
    23    14    28 1   
    24    15    16 1   
    25    15    20 ar  
    26    16    29 1   
    27    17    18 ar  
    28    17    19 ar  
    29    19    20 ar  
    30    19    30 1   
    31    20    21 1   
    32    21    22 1   
    33    22    31 1   
    34    22    32 1   
    35    22    33 1   
@<TRIPOS>SUBSTRUCTURE
     1 XZ1         1 TEMP              0 ****  ****    0 ROOT
