@<TRIPOS>MOLECULE
XZ1
   33    35     1     0     0
SMALL
No Charge or Current Charge


@<TRIPOS>ATOM
      1 F1          -6.1520    -1.2550    -0.0180 f          1 XZ1      -0.161000
      2 C13         -4.8080    -1.1180     0.0450 ca         1 XZ1       0.150000
      3 C14         -4.0270    -2.1820     0.5250 ca         1 XZ1      -0.114000
      4 C15         -2.6270    -2.0470     0.5920 ca         1 XZ1      -0.148000
      5 C12         -4.1900     0.0760    -0.3730 ca         1 XZ1       0.095000
      6 Cl1         -5.1520     1.4160    -0.9950 cl         1 XZ1      -0.169000
      7 C11         -2.7920     0.2050    -0.3020 ca         1 XZ1      -0.100000
      8 C10         -2.0020    -0.8510     0.1930 ca         1 XZ1       0.303000
      9 N1          -0.6070    -0.7720     0.2660 nu         1 XZ1      -0.928900
     10 C8           0.3030     0.2810     0.3900 ca         1 XZ1       0.406900
     11 N2          -0.1950     1.4670     0.7790 nb         1 XZ1      -0.273000
     12 C7           0.6860     2.4710     0.9370 ca         1 XZ1       0.165900
     13 C4           1.6920     0.0990     0.1750 ca         1 XZ1      -0.163000
     14 C5           2.2510    -1.1370    -0.2310 ca         1 XZ1      -0.114000
     15 C6           3.6350    -1.2530    -0.4290 ca         1 XZ1       0.121100
     16 O1           4.1650    -2.4490    -0.8210 oh         1 XZ1      -0.532100
     17 C3           2.5370     1.2210     0.3740 ca         1 XZ1       0.058000
     18 N3           2.0190     2.4070     0.7550 nb         1 XZ1      -0.200000
     19 C2           3.9230     1.0910     0.1710 ca         1 XZ1      -0.162000
     20 C1           4.4800    -0.1430    -0.2290 ca         1 XZ1       0.096100
     21 O2           5.8390    -0.3130    -0.4390 os         1 XZ1      -0.364100
     22 C9           6.7850     0.7590    -0.2620 c3         1 XZ1       0.153900
     23 H1          -4.5050    -3.1050     0.8420 ha         1 XZ1       0.136000
     24 H2          -2.0290    -2.8740     0.9660 ha         1 XZ1       0.117000
     25 H3          -2.3300     1.1210    -0.6510 ha         1 XZ1       0.173000
     26 H4          -0.1560    -1.6820     0.3260 hn         1 XZ1       0.501000
     27 H5           0.2810     3.4330     1.2480 h5         1 XZ1       0.049100
     28 H6           1.6290    -2.0100    -0.4040 ha         1 XZ1       0.125000
     29 H7           5.1360    -2.3140    -0.9020 ho         1 XZ1       0.488000
     30 H8           4.5520     1.9620     0.3300 ha         1 XZ1       0.142000
     31 H9           7.8020     0.4080    -0.4800 h1         1 XZ1       0.049367
     32 H10          6.5620     1.5930    -0.9400 h1         1 XZ1       0.049367
     33 H11          6.7680     1.1290     0.7710 h1         1 XZ1       0.049367
@<TRIPOS>BOND
     1     1     2 1   
     2     2     3 ar  
     3     2     5 ar  
     4     3     4 ar  
     5     3    23 1   
     6     4     8 ar  
     7     4    24 1   
     8     5     6 1   
     9     5     7 ar  
    10     7     8 ar  
    11     7    25 1   
    12     8     9 1   
    13     9    10 1   
    14     9    26 1   
    15    10    11 ar  
    16    10    13 ar  
    17    11    12 ar  
    18    12    18 ar  
    19    12    27 1   
    20    13    14 ar  
    21    13    17 ar  
    22    14    15 ar  
    23    14    28 1   
    24    15    16 1   
    25    15    20 ar  
    26    16    29 1   
    27    17    18 ar  
    28    17    19 ar  
    29    19    20 ar  
    30    19    30 1   
    31    20    21 1   
    32    21    22 1   
    33    22    31 1   
    34    22    32 1   
    35    22    33 1   
@<TRIPOS>SUBSTRUCTURE
     1 XZ1         1 TEMP              0 ****  ****    0 ROOT
