@<TRIPOS>MOLECULE
XZ2
   43    45     1     0     0
SMALL
abcg2


@<TRIPOS>ATOM
      1 CL          -5.5040    -1.7790    -1.9660 cl         1 XZ2      -0.162000
      2 CAA          2.6740    -2.7770     2.0660 c3         1 XZ2       0.166600
      3 CAB          0.4230    -2.5540     1.1430 c3         1 XZ2       0.166600
      4 OAC          0.1980     3.6450    -0.6850 o          1 XZ2      -0.576000
      5 OAD          1.5050    -2.4580    -1.5710 o          1 XZ2      -0.535500
      6 OAE          3.8190    -2.7010    -0.6210 o          1 XZ2      -0.535500
      7 OAF          4.8280     2.0000     1.2590 oh         1 XZ2      -0.509100
      8 OAG          2.8240     3.5990     0.5770 oh         1 XZ2      -0.495100
      9 FAH         -5.6890    -1.0170     0.8290 f          1 XZ2      -0.158000
     10 CAJ         -3.9620     0.5760     0.8510 ca         1 XZ2      -0.149000
     11 CAK         -2.9750     1.2590     0.1620 ca         1 XZ2      -0.067000
     12 CAL          3.6670     0.0880     0.3710 ca         1 XZ2      -0.075000
     13 CAM         -3.5330     0.0760    -1.8490 ca         1 XZ2      -0.067000
     14 CAN         -1.6680     1.7560    -1.9340 c3         1 XZ2       0.158300
     15 CAO          0.2050     0.1770    -1.3420 c5         1 XZ2       0.136300
     16 CAP          0.4230     2.4460    -0.8000 c          1 XZ2       0.588600
     17 CAQ          3.7680     1.4390     0.6550 ca         1 XZ2       0.077100
     18 CAR         -4.7320    -0.3530     0.1780 ca         1 XZ2       0.186000
     19 CAS          2.7170     2.3030     0.2970 ca         1 XZ2       0.249100
     20 CAT         -2.7530     1.0170    -1.1920 ca         1 XZ2      -0.126300
     21 CAU         -4.5260    -0.6090    -1.1650 ca         1 XZ2       0.065000
     22 CAV          1.5100     0.3900    -0.6310 ca         1 XZ2       0.037700
     23 CAW          2.5410    -0.4510    -0.2640 ca         1 XZ2      -0.300500
     24 CAX          1.6250     1.7410    -0.3400 ca         1 XZ2      -0.287600
     25 NAY          1.8270    -2.8450     0.8800 n3         1 XZ2      -0.700500
     26 NAZ         -0.3670     1.5100    -1.3630 n          1 XZ2      -0.407800
     27 HAA          2.2400    -3.4330     2.8190 h1         1 XZ2       0.054367
     28 HAAA         3.6760    -3.1340     1.8500 h1         1 XZ2       0.054367
     29 HAAB         2.7310    -1.7680     2.4880 h1         1 XZ2       0.054367
     30 HAB          0.2540    -1.5150     1.4450 h1         1 XZ2       0.054367
     31 HABA        -0.1900    -2.7880     0.2770 h1         1 XZ2       0.054367
     32 HABB         0.1000    -3.1970     1.9590 h1         1 XZ2       0.054367
     33 HOAF         5.4950     1.3340     1.4630 ho         1 XZ2       0.468000
     34 HOAG         2.0300     4.0640     0.2630 ho         1 XZ2       0.508000
     35 HAJ         -4.1420     0.7620     1.9020 ha         1 XZ2       0.138000
     36 HAK         -2.3750     1.9890     0.6900 ha         1 XZ2       0.130000
     37 HAL          4.4940    -0.5570     0.6440 ha         1 XZ2       0.137000
     38 HAM         -3.3690    -0.1320    -2.8990 ha         1 XZ2       0.135000
     39 HAN         -1.6670     1.4620    -2.9860 h1         1 XZ2       0.072200
     40 HANA        -1.8470     2.8310    -1.9030 h1         1 XZ2       0.072200
     41 HAO          0.3440    -0.2010    -2.3570 h1         1 XZ2       0.087700
     42 HAOA        -0.4570    -0.5160    -0.8180 h1         1 XZ2       0.087700
     43 SBA          2.4600    -2.2000    -0.5060 sy         1 XZ2       1.156600
@<TRIPOS>BOND
     1     1    21 1   
     2     2    25 1   
     3     2    27 1   
     4     2    28 1   
     5     2    29 1   
     6     3    25 1   
     7     3    30 1   
     8     3    31 1   
     9     3    32 1   
    10     4    16 2   
    11     5    43 2   
    12     6    43 2   
    13     7    17 1   
    14     7    33 1   
    15     8    19 1   
    16     8    34 1   
    17     9    18 1   
    18    10    11 ar  
    19    10    18 ar  
    20    10    35 1   
    21    11    20 ar  
    22    11    36 1   
    23    12    17 ar  
    24    12    23 ar  
    25    12    37 1   
    26    13    20 ar  
    27    13    21 ar  
    28    13    38 1   
    29    14    20 1   
    30    14    26 1   
    31    14    39 1   
    32    14    40 1   
    33    15    22 1   
    34    15    26 1   
    35    15    41 1   
    36    15    42 1   
    37    16    24 1   
    38    16    26 1   
    39    17    19 ar  
    40    18    21 ar  
    41    19    24 ar  
    42    22    23 ar  
    43    22    24 ar  
    44    23    43 1   
    45    25    43 1   
@<TRIPOS>SUBSTRUCTURE
     1 XZ2         1 TEMP              0 ****  ****    0 ROOT
