@<TRIPOS>MOLECULE
XZ2
   43    45     1     0     0
SMALL
No Charge or Current Charge


@<TRIPOS>ATOM
      1 Cl          -4.8230    -1.5660    -3.4250 cl         1 XZ2      -0.162000
      2 CAA          2.9080    -2.6390     2.2380 c3         1 XZ2       0.166600
      3 CAB          0.5540    -2.0210     1.9370 c3         1 XZ2       0.166600
      4 OAC          0.5320     3.7930    -0.7100 o          1 XZ2      -0.576000
      5 OAD          0.7690    -2.5830    -0.9970 o          1 XZ2      -0.535500
      6 OAE          3.2390    -3.0810    -0.6470 o          1 XZ2      -0.535500
      7 OAF          5.3580     1.6120     0.3380 oh         1 XZ2      -0.509100
      8 OAG          3.3120     3.5460    -0.1140 oh         1 XZ2      -0.495100
      9 FAH         -5.8010    -1.8690    -0.5890 f          1 XZ2      -0.158000
     10 CAJ         -4.4440    -0.1670     0.3760 ca         1 XZ2      -0.149000
     11 CAK         -3.4700     0.8360     0.2300 ca         1 XZ2      -0.067000
     12 CAL          3.7300    -0.1390     0.0250 ca         1 XZ2      -0.075000
     13 CAM         -3.3370     0.3590    -2.1560 ca         1 XZ2      -0.067000
     14 CAN         -1.8430     2.1770    -1.1890 c3         1 XZ2       0.158300
     15 CAO         -0.0710     0.2530    -0.8090 c5         1 XZ2       0.136300
     16 CAP          0.5720     2.5720    -0.6850 c          1 XZ2       0.588600
     17 CAQ          4.0630     1.2350     0.0740 ca         1 XZ2       0.077100
     18 CAR         -4.8640    -0.9050    -0.7430 ca         1 XZ2       0.186000
     19 CAS          3.0530     2.2040    -0.1510 ca         1 XZ2       0.249100
     20 CAT         -2.9140     1.1040    -1.0370 ca         1 XZ2      -0.126300
     21 CAU         -4.3110    -0.6450    -2.0110 ca         1 XZ2       0.065000
     22 CAV          1.4150     0.4200    -0.4760 ca         1 XZ2       0.037700
     23 CAW          2.4010    -0.5650    -0.2420 ca         1 XZ2      -0.300500
     24 CAX          1.7590     1.7610    -0.4210 ca         1 XZ2      -0.287600
     25 NAY          1.7220    -2.7160     1.3570 n3         1 XZ2      -0.700500
     26 NAZ         -0.4850     1.6880    -0.8950 n          1 XZ2      -0.407800
     27 HAA          2.6630    -3.0000     3.2460 h1         1 XZ2       0.054367
     28 HAAA         3.7300    -3.2620     1.8600 h1         1 XZ2       0.054367
     29 HAAB         3.2690    -1.6070     2.3310 h1         1 XZ2       0.054367
     30 HAB          0.7220    -0.9370     1.9930 h1         1 XZ2       0.054367
     31 HABA        -0.3520    -2.2040     1.3450 h1         1 XZ2       0.054367
     32 HABB         0.3560    -2.3830     2.9550 h1         1 XZ2       0.054367
     33 HOAF         5.9110     0.8100     0.4530 ho         1 XZ2       0.468000
     34 HOAG         2.4590     4.0010    -0.3020 ho         1 XZ2       0.508000
     35 HAJ         -4.8730    -0.3750     1.3530 ha         1 XZ2       0.138000
     36 HAK         -3.1430     1.4010     1.1010 ha         1 XZ2       0.130000
     37 HAL          4.5070    -0.8820     0.1970 ha         1 XZ2       0.137000
     38 HAM         -2.9100     0.5520    -3.1370 ha         1 XZ2       0.135000
     39 HAN         -1.8590     2.5710    -2.2140 h1         1 XZ2       0.072200
     40 HANA        -2.0740     3.0120    -0.5150 h1         1 XZ2       0.072200
     41 HAO         -0.2180    -0.2660    -1.7660 h1         1 XZ2       0.087700
     42 HAOA        -0.6140    -0.2790    -0.0190 h1         1 XZ2       0.087700
     43 SBA          2.0270    -2.3390    -0.2830 sy         1 XZ2       1.156600
@<TRIPOS>BOND
     1     1    21 1   
     2     2    25 1   
     3     2    27 1   
     4     2    28 1   
     5     2    29 1   
     6     3    25 1   
     7     3    30 1   
     8     3    31 1   
     9     3    32 1   
    10     4    16 2   
    11     5    43 2   
    12     6    43 2   
    13     7    17 1   
    14     7    33 1   
    15     8    19 1   
    16     8    34 1   
    17     9    18 1   
    18    10    11 ar  
    19    10    18 ar  
    20    10    35 1   
    21    11    20 ar  
    22    11    36 1   
    23    12    17 ar  
    24    12    23 ar  
    25    12    37 1   
    26    13    20 ar  
    27    13    21 ar  
    28    13    38 1   
    29    14    20 1   
    30    14    26 1   
    31    14    39 1   
    32    14    40 1   
    33    15    22 1   
    34    15    26 1   
    35    15    41 1   
    36    15    42 1   
    37    16    24 1   
    38    16    26 1   
    39    17    19 ar  
    40    18    21 ar  
    41    19    24 ar  
    42    22    23 ar  
    43    22    24 ar  
    44    23    43 1   
    45    25    43 1   
@<TRIPOS>SUBSTRUCTURE
     1 XZ2         1 TEMP              0 ****  ****    0 ROOT
