@<TRIPOS>MOLECULE
XZ3
  149   152     1     0     0
SMALL
abcg2


@<TRIPOS>ATOM
      1 C10        -25.3540    24.7600     7.6950 c6         1 XZ3      -0.061700
      2 C12        -25.0250    25.6490     8.9010 c6         1 XZ3      -0.092400
      3 C13        -23.6570    25.3370     9.4980 c6         1 XZ3       0.128300
      4 C17        -23.5420    23.8670     9.8690 c6         1 XZ3       0.172300
      5 C2         -26.4910    21.9840     3.9720 c          1 XZ3       0.580100
      6 C20        -23.8280    22.9850     8.6670 c6         1 XZ3      -0.072400
      7 C21        -25.2070    23.2830     8.0790 c6         1 XZ3      -0.077400
      8 C22        -26.1800    25.5520     4.0910 c3         1 XZ3      -0.087400
      9 C23        -25.0070    25.6160     3.1120 c3         1 XZ3       0.177300
     10 C25        -24.4290    27.0510     3.0400 c3         1 XZ3      -0.051500
     11 C27        -23.4440    27.2330     1.8820 c3         1 XZ3      -0.082100
     12 C28        -23.7440    27.3620     4.3400 c2         1 XZ3      -0.181200
     13 C29        -24.1160    28.2520     5.2580 c2         1 XZ3      -0.139400
     14 C30        -25.3510    29.1080     5.1480 c3         1 XZ3      -0.059900
     15 C31        -23.3490    28.4150     6.5470 c3         1 XZ3       0.225500
     16 C34        -22.5990    29.7640     6.6760 c3         1 XZ3       0.025300
     17 C38        -21.3950    29.8130     5.7300 c          1 XZ3       0.551100
     18 C4         -26.3600    24.2270     4.8030 c3         1 XZ3       0.176300
     19 C40        -21.6670    30.3130     4.3330 c3         1 XZ3      -0.163700
     20 C42        -20.7160    29.7040     3.3090 c3         1 XZ3      -0.076100
     21 C43        -21.6040    31.8560     4.3730 c3         1 XZ3      -0.064400
     22 C44        -22.1570    32.5400     3.1030 c3         1 XZ3      -0.029500
     23 C46        -22.0340    34.0610     3.2420 c3         1 XZ3      -0.085100
     24 C47        -23.5750    32.1230     2.8650 c2         1 XZ3      -0.204200
     25 C48        -23.9720    31.2770     1.9050 ce         1 XZ3      -0.184000
     26 C49        -25.3120    30.7670     1.7660 ce         1 XZ3      -0.186000
     27 C50        -25.6600    29.8130     0.8790 cf         1 XZ3      -0.161000
     28 C51        -26.9700    29.2150     0.8290 cf         1 XZ3      -0.194000
     29 C52        -27.3750    28.2140     0.0260 c2         1 XZ3      -0.109400
     30 C53        -26.5340    27.5690    -1.0330 c3         1 XZ3      -0.056900
     31 C54        -28.7720    27.6620     0.2050 c3         1 XZ3       0.203500
     32 C56        -28.7580    26.1990     0.6380 c3         1 XZ3      -0.073400
     33 C57        -30.1170    25.6860     1.0820 c6         1 XZ3       0.182300
     34 C6         -27.3020    24.2590     6.0140 c3         1 XZ3      -0.074700
     35 C60        -31.1390    23.5390     1.5400 c6         1 XZ3       0.318000
     36 C62        -30.6070    22.0880     1.5500 c          1 XZ3       0.495100
     37 C64        -29.5900    21.6660     2.6090 c          1 XZ3       0.535100
     38 C67        -27.7440    22.0530     1.0000 c6         1 XZ3       0.102000
     39 C68        -26.9530    20.9520     0.3060 c6         1 XZ3      -0.097400
     40 C69        -25.8990    20.3630     1.2420 c6         1 XZ3      -0.077400
     41 C70        -26.5450    19.8760     2.5370 c6         1 XZ3      -0.077400
     42 C71        -27.3630    20.9780     3.2190 c6         1 XZ3       0.044700
     43 C73        -31.6850    24.0120     2.8960 c6         1 XZ3      -0.063700
     44 C75        -32.9560    23.2760     3.3030 c3         1 XZ3      -0.084100
     45 C76        -31.8750    25.5320     2.8600 c6         1 XZ3      -0.070400
     46 C77        -30.5990    26.2420     2.4120 c6         1 XZ3      -0.105400
     47 C8         -28.7120    24.7220     5.6470 c3         1 XZ3      -0.087100
     48 C9         -26.7540    25.1040     7.1740 c3         1 XZ3      -0.069400
     49 N66        -28.2970    21.5810     2.2740 n          1 XZ3      -0.367800
     50 O1         -25.5520    21.6190     4.6460 o          1 XZ3      -0.499000
     51 O15        -23.4080    26.0760    10.6990 os         1 XZ3      -0.481000
     52 O19        -22.2330    23.5730    10.3650 oh         1 XZ3      -0.726000
     53 O3         -26.9090    23.2390     3.8620 os         1 XZ3      -0.433100
     54 O33        -22.4500    27.3350     6.7430 oh         1 XZ3      -0.721000
     55 O36        -22.2180    29.8580     8.0320 os         1 XZ3      -0.461000
     56 O59        -29.9640    24.2510     1.1820 os         1 XZ3      -0.501000
     57 O61        -32.1370    23.6570     0.5690 oh         1 XZ3      -0.657000
     58 O63        -31.0240    21.2690     0.7640 o          1 XZ3      -0.489100
     59 O65        -30.0700    21.3430     3.6970 o          1 XZ3      -0.603100
     60 O78        -29.5370    27.7280    -1.0060 os         1 XZ3      -0.461000
     61 O80        -25.4560    25.1680     1.8290 os         1 XZ3      -0.466000
     62 H1         -24.6200    24.9790     6.9110 hc         1 XZ3       0.055700
     63 H2         -25.0700    26.7010     8.6100 hc         1 XZ3       0.044700
     64 H3         -25.7820    25.4960     9.6780 hc         1 XZ3       0.044700
     65 H4         -22.8710    25.5700     8.7700 h1         1 XZ3       0.053700
     66 H8         -24.2820    23.6600    10.6550 h1         1 XZ3       0.041700
     67 H9         -23.7540    21.9360     8.9650 hc         1 XZ3       0.057700
     68 H10        -23.0550    23.1620     7.9110 hc         1 XZ3       0.057700
     69 H11        -25.9820    23.0300     8.8120 hc         1 XZ3       0.049700
     70 H12        -25.3720    22.6430     7.2120 hc         1 XZ3       0.049700
     71 H13        -26.0090    26.2910     4.8730 hc         1 XZ3       0.067700
     72 H14        -27.0920    25.8470     3.5700 hc         1 XZ3       0.067700
     73 H15        -24.2100    24.9460     3.4570 h1         1 XZ3       0.044700
     74 H16        -25.2680    27.7310     2.8830 hc         1 XZ3       0.063700
     75 H17        -23.0990    28.2660     1.8470 hc         1 XZ3       0.038367
     76 H18        -22.5690    26.5900     2.0100 hc         1 XZ3       0.038367
     77 H19        -23.9120    26.9970     0.9270 hc         1 XZ3       0.038367
     78 H20        -22.8510    26.7760     4.5330 ha         1 XZ3       0.194000
     79 H21        -25.2820    29.9950     5.7780 hc         1 XZ3       0.043367
     80 H22        -25.5220    29.4370     4.1240 hc         1 XZ3       0.043367
     81 H23        -26.2350    28.5500     5.4730 hc         1 XZ3       0.043367
     82 H24        -24.0820    28.4350     7.3650 h1         1 XZ3       0.046700
     83 H25        -23.2880    30.5760     6.4180 h1         1 XZ3       0.058700
     84 H26        -21.5440    31.1030     9.4820 h1         1 XZ3       0.038033
     85 H27        -20.8270    31.4090     7.8830 h1         1 XZ3       0.038033
     86 H28        -22.5060    31.9080     8.2160 h1         1 XZ3       0.038033
     87 H29        -25.3870    23.8550     5.1150 h1         1 XZ3       0.072700
     88 H30        -22.6920    30.0360     4.0840 hc         1 XZ3       0.075700
     89 H31        -20.7610    28.6140     3.3420 hc         1 XZ3       0.043033
     90 H32        -20.9820    30.0210     2.3020 hc         1 XZ3       0.043033
     91 H33        -19.6870    30.0090     3.5040 hc         1 XZ3       0.043033
     92 H34        -20.5650    32.1640     4.5210 hc         1 XZ3       0.044200
     93 H35        -22.1690    32.2300     5.2320 hc         1 XZ3       0.044200
     94 H36        -21.5530    32.2190     2.2500 hc         1 XZ3       0.055700
     95 H37        -20.9960    34.3520     3.4200 hc         1 XZ3       0.037367
     96 H38        -22.3790    34.5650     2.3370 hc         1 XZ3       0.037367
     97 H39        -22.6350    34.4210     4.0810 hc         1 XZ3       0.037367
     98 H40        -24.3100    32.4880     3.5810 ha         1 XZ3       0.166000
     99 H41        -23.2320    30.8920     1.2080 ha         1 XZ3       0.170000
    100 H42        -26.0590    31.1410     2.4630 ha         1 XZ3       0.167000
    101 H43        -24.8970    29.4420     0.2040 ha         1 XZ3       0.174000
    102 H44        -27.6860    29.6000     1.5500 ha         1 XZ3       0.165000
    103 H45        -25.6010    28.1010    -1.2080 hc         1 XZ3       0.048033
    104 H46        -26.2870    26.5390    -0.7600 hc         1 XZ3       0.048033
    105 H47        -27.0850    27.5220    -1.9750 hc         1 XZ3       0.048033
    106 H48        -29.2790    28.2670     0.9640 h1         1 XZ3       0.034700
    107 H49        -28.4120    25.5880    -0.1970 hc         1 XZ3       0.071200
    108 H50        -28.0400    26.0730     1.4500 hc         1 XZ3       0.071200
    109 H51        -30.8580    25.8900     0.3060 h1         1 XZ3       0.067700
    110 H52        -27.3700    23.2230     6.3600 hc         1 XZ3       0.061700
    111 H53        -27.1050    22.9120     1.2120 h1         1 XZ3       0.068200
    112 H54        -28.5550    22.4110     0.3740 h1         1 XZ3       0.068200
    113 H55        -27.6420    20.1650    -0.0150 hc         1 XZ3       0.053700
    114 H56        -26.4890    21.3710    -0.5890 hc         1 XZ3       0.053700
    115 H57        -25.3790    19.5350     0.7550 hc         1 XZ3       0.047200
    116 H58        -25.1450    21.1220     1.4700 hc         1 XZ3       0.047200
    117 H59        -27.2240    19.0470     2.3230 hc         1 XZ3       0.066700
    118 H60        -25.7960    19.5150     3.2410 hc         1 XZ3       0.066700
    119 H61        -27.9700    20.5300     4.0090 h1         1 XZ3       0.108700
    120 H62        -30.9050    23.7920     3.6260 hc         1 XZ3       0.070700
    121 H63        -33.2560    23.5840     4.3060 hc         1 XZ3       0.044367
    122 H64        -33.7740    23.5000     2.6180 hc         1 XZ3       0.044367
    123 H65        -32.8060    22.1950     3.3170 hc         1 XZ3       0.044367
    124 H66        -32.1700    25.8720     3.8550 hc         1 XZ3       0.051700
    125 H67        -32.6950    25.7790     2.1800 hc         1 XZ3       0.051700
    126 H68        -29.8090    26.1070     3.1560 hc         1 XZ3       0.048200
    127 H69        -30.7790    27.3140     2.3160 hc         1 XZ3       0.048200
    128 H70        -30.5140    28.9810    -2.2640 h1         1 XZ3       0.031700
    129 H71        -30.3780    29.5840    -0.5920 h1         1 XZ3       0.031700
    130 H72        -28.9640    29.6230    -1.6690 h1         1 XZ3       0.031700
    131 H73        -29.3820    24.5970     6.4990 hc         1 XZ3       0.039033
    132 H74        -28.7220    25.7770     5.3660 hc         1 XZ3       0.039033
    133 H75        -29.1130    24.1460     4.8140 hc         1 XZ3       0.039033
    134 H76        -25.0780    23.9520     0.2540 h1         1 XZ3       0.030033
    135 H77        -23.6150    24.6360     0.9940 h1         1 XZ3       0.030033
    136 H78        -24.4940    23.3260     1.8130 h1         1 XZ3       0.030033
    137 H79        -26.7710    26.1610     6.8910 hc         1 XZ3       0.039700
    138 H80        -27.4610    25.0030     8.0040 hc         1 XZ3       0.039700
    139 H81        -22.0270    24.2590    11.0150 ho         1 XZ3       0.514000
    140 H82        -21.9240    27.5330     7.5270 ho         1 XZ3       0.528000
    141 H83        -31.9950    22.9660    -0.0980 ho         1 XZ3       0.469000
    142 C16        -22.9650    27.4080    10.4870 c3         1 XZ3       0.148900
    143 O39        -20.2910    29.4840     6.1140 o          1 XZ3      -0.499100
    144 C37        -21.7460    31.1450     8.4140 c3         1 XZ3       0.145900
    145 C79        -29.8580    29.0530    -1.3970 c3         1 XZ3       0.142900
    146 C81        -24.6070    24.2240     1.1980 c3         1 XZ3       0.145900
    147 H5         -22.8150    27.8570    11.4680 h1         1 XZ3       0.032033
    148 H6         -22.0180    27.4220     9.9370 h1         1 XZ3       0.032033
    149 H7         -23.6990    27.9990     9.9320 h1         1 XZ3       0.032033
@<TRIPOS>BOND
     1     1     2 1   
     2     1     7 1   
     3     1    48 1   
     4     1    62 1   
     5     2     3 1   
     6     2    63 1   
     7     2    64 1   
     8     3     4 1   
     9     3    51 1   
    10     3    65 1   
    11     4     6 1   
    12     4    52 1   
    13     4    66 1   
    14     5    42 1   
    15     5    50 2   
    16     5    53 1   
    17     6     7 1   
    18     6    67 1   
    19     6    68 1   
    20     7    69 1   
    21     7    70 1   
    22     8     9 1   
    23     8    18 1   
    24     8    71 1   
    25     8    72 1   
    26     9    10 1   
    27     9    61 1   
    28     9    73 1   
    29    10    11 1   
    30    10    12 1   
    31    10    74 1   
    32    11    75 1   
    33    11    76 1   
    34    11    77 1   
    35    12    13 2   
    36    12    78 1   
    37    13    14 1   
    38    13    15 1   
    39    14    79 1   
    40    14    80 1   
    41    14    81 1   
    42    15    16 1   
    43    15    54 1   
    44    15    82 1   
    45    16    17 1   
    46    16    55 1   
    47    16    83 1   
    48    17    19 1   
    49    17   143 2   
    50    18    34 1   
    51    18    53 1   
    52    18    87 1   
    53    19    20 1   
    54    19    21 1   
    55    19    88 1   
    56    20    89 1   
    57    20    90 1   
    58    20    91 1   
    59    21    22 1   
    60    21    92 1   
    61    21    93 1   
    62    22    23 1   
    63    22    24 1   
    64    22    94 1   
    65    23    95 1   
    66    23    96 1   
    67    23    97 1   
    68    24    25 2   
    69    24    98 1   
    70    25    26 1   
    71    25    99 1   
    72    26    27 2   
    73    26   100 1   
    74    27    28 1   
    75    27   101 1   
    76    28    29 2   
    77    28   102 1   
    78    29    30 1   
    79    29    31 1   
    80    30   103 1   
    81    30   104 1   
    82    30   105 1   
    83    31    32 1   
    84    31    60 1   
    85    31   106 1   
    86    32    33 1   
    87    32   107 1   
    88    32   108 1   
    89    33    46 1   
    90    33    56 1   
    91    33   109 1   
    92    34    47 1   
    93    34    48 1   
    94    34   110 1   
    95    35    36 1   
    96    35    43 1   
    97    35    56 1   
    98    35    57 1   
    99    36    37 1   
   100    36    58 2   
   101    37    49 1   
   102    37    59 2   
   103    38    39 1   
   104    38    49 1   
   105    38   111 1   
   106    38   112 1   
   107    39    40 1   
   108    39   113 1   
   109    39   114 1   
   110    40    41 1   
   111    40   115 1   
   112    40   116 1   
   113    41    42 1   
   114    41   117 1   
   115    41   118 1   
   116    42    49 1   
   117    42   119 1   
   118    43    44 1   
   119    43    45 1   
   120    43   120 1   
   121    44   121 1   
   122    44   122 1   
   123    44   123 1   
   124    45    46 1   
   125    45   124 1   
   126    45   125 1   
   127    46   126 1   
   128    46   127 1   
   129    47   131 1   
   130    47   132 1   
   131    47   133 1   
   132    48   137 1   
   133    48   138 1   
   134    51   142 1   
   135    52   139 1   
   136    54   140 1   
   137    55   144 1   
   138    57   141 1   
   139    60   145 1   
   140    61   146 1   
   141    84   144 1   
   142    85   144 1   
   143    86   144 1   
   144   128   145 1   
   145   129   145 1   
   146   130   145 1   
   147   134   146 1   
   148   135   146 1   
   149   136   146 1   
   150   142   147 1   
   151   142   148 1   
   152   142   149 1   
@<TRIPOS>SUBSTRUCTURE
     1 XZ3         1 TEMP              0 ****  ****    0 ROOT
