@<TRIPOS>MOLECULE
XZ3
  149   152     1     0     0
SMALL
No Charge or Current Charge


@<TRIPOS>ATOM
      1 C10        -25.6360    24.3780     7.8620 c6         1 XZ3      -0.061700
      2 C12        -25.3570    25.3370     9.0550 c6         1 XZ3      -0.092400
      3 C13        -24.3220    24.7210    10.0380 c6         1 XZ3       0.128300
      4 C17        -24.8340    23.3450    10.5560 c6         1 XZ3       0.172300
      5 C2         -26.7150    21.7890     3.6570 c          1 XZ3       0.580100
      6 C20        -25.0790    22.3750     9.3770 c6         1 XZ3      -0.072400
      7 C21        -26.0930    22.9790     8.3710 c6         1 XZ3      -0.077400
      8 C22        -24.7670    24.8780     4.3180 c3         1 XZ3      -0.087400
      9 C23        -23.2700    24.5580     4.0640 c3         1 XZ3       0.177300
     10 C25        -22.4330    25.8200     3.6650 c3         1 XZ3      -0.051500
     11 C27        -20.9780    25.4440     3.2810 c3         1 XZ3      -0.082100
     12 C28        -22.4100    26.8640     4.7840 c2         1 XZ3      -0.181200
     13 C29        -23.2720    27.8820     5.0190 c2         1 XZ3      -0.139400
     14 C30        -24.4890    28.2230     4.1600 c3         1 XZ3      -0.059900
     15 C31        -23.1880    28.7820     6.2560 c3         1 XZ3       0.225500
     16 C34        -22.5150    30.1680     6.0470 c3         1 XZ3       0.025300
     17 C38        -21.2690    30.1140     5.1070 c          1 XZ3       0.551100
     18 C4         -25.6930    23.7210     4.7860 c3         1 XZ3       0.176300
     19 C40        -21.5330    30.4570     3.6220 c3         1 XZ3      -0.163700
     20 C42        -20.6180    29.6800     2.6460 c3         1 XZ3      -0.076100
     21 C43        -21.4890    32.0000     3.4040 c3         1 XZ3      -0.064400
     22 C44        -22.2970    32.5090     2.1780 c3         1 XZ3      -0.029500
     23 C46        -22.1590    34.0350     1.9990 c3         1 XZ3      -0.085100
     24 C47        -23.7590    32.1170     2.2960 c2         1 XZ3      -0.204200
     25 C48        -24.4460    31.3640     1.4110 ce         1 XZ3      -0.184000
     26 C49        -25.8230    30.9190     1.6390 ce         1 XZ3      -0.186000
     27 C50        -26.5380    30.1550     0.7720 cf         1 XZ3      -0.161000
     28 C51        -27.8670    29.6220     1.0560 cf         1 XZ3      -0.194000
     29 C52        -28.6380    28.8970     0.2050 c2         1 XZ3      -0.109400
     30 C53        -28.2420    28.5690    -1.2330 c3         1 XZ3      -0.056900
     31 C54        -29.9470    28.2490     0.6700 c3         1 XZ3       0.203500
     32 C56        -29.8660    26.7060     0.6120 c3         1 XZ3      -0.073400
     33 C57        -30.9530    25.9180     1.3910 c6         1 XZ3       0.182300
     34 C6         -26.9670    24.2390     5.5550 c3         1 XZ3      -0.074700
     35 C60        -31.4260    23.5150     1.7950 c6         1 XZ3       0.318000
     36 C62        -30.8660    22.1140     1.3180 c          1 XZ3       0.495100
     37 C64        -29.6080    21.5090     2.0890 c          1 XZ3       0.535100
     38 C67        -28.0600    22.9340     0.6630 c6         1 XZ3       0.102000
     39 C68        -26.8320    22.7800    -0.2570 c6         1 XZ3      -0.097400
     40 C69        -25.5750    22.4170     0.5380 c6         1 XZ3      -0.077400
     41 C70        -25.8410    21.1170     1.3190 c6         1 XZ3      -0.077400
     42 C71        -27.0770    21.1830     2.2690 c6         1 XZ3       0.044700
     43 C73        -31.3880    23.7370     3.3490 c6         1 XZ3      -0.063700
     44 C75        -32.2960    22.7410     4.1330 c3         1 XZ3      -0.084100
     45 C76        -31.7770    25.2010     3.7060 c6         1 XZ3      -0.070400
     46 C77        -30.9390    26.2270     2.9090 c6         1 XZ3      -0.105400
     47 C8         -27.9060    25.0760     4.6550 c3         1 XZ3      -0.087100
     48 C9         -26.6600    25.0200     6.8720 c3         1 XZ3      -0.069400
     49 N66        -28.2970    21.7970     1.6120 n          1 XZ3      -0.367800
     50 O1         -27.1030    21.2820     4.7010 o          1 XZ3      -0.499000
     51 O15        -24.0310    25.5870    11.1640 os         1 XZ3      -0.481000
     52 O19        -23.8980    22.7950    11.4920 oh         1 XZ3      -0.726000
     53 O3         -26.0940    23.0140     3.5880 os         1 XZ3      -0.433100
     54 O33        -22.5170    28.1340     7.3380 oh         1 XZ3      -0.721000
     55 O36        -22.1880    30.6770     7.3770 os         1 XZ3      -0.461000
     56 O59        -30.6150    24.5300     1.1660 os         1 XZ3      -0.501000
     57 O61        -32.7590    23.6990     1.2920 oh         1 XZ3      -0.657000
     58 O63        -31.2850    21.5690     0.2920 o          1 XZ3      -0.489100
     59 O65        -29.7670    20.7350     3.0300 o          1 XZ3      -0.603100
     60 O78        -31.0440    28.6700    -0.1630 os         1 XZ3      -0.461000
     61 O80        -23.1640    23.6040     2.9880 os         1 XZ3      -0.466000
     62 H1         -24.6910    24.2600     7.3150 hc         1 XZ3       0.055700
     63 H2         -24.9820    26.2910     8.6620 hc         1 XZ3       0.044700
     64 H3         -26.2910    25.5590     9.5890 hc         1 XZ3       0.044700
     65 H4         -23.3830    24.5530     9.4890 h1         1 XZ3       0.053700
     66 H8         -25.7960    23.5140    11.0630 h1         1 XZ3       0.041700
     67 H9         -25.4590    21.4160     9.7550 hc         1 XZ3       0.057700
     68 H10        -24.1310    22.1580     8.8650 hc         1 XZ3       0.057700
     69 H11        -27.0790    23.0620     8.8500 hc         1 XZ3       0.049700
     70 H12        -26.2150    22.2840     7.5300 hc         1 XZ3       0.049700
     71 H13        -24.7830    25.6460     5.0910 hc         1 XZ3       0.067700
     72 H14        -25.1940    25.3380     3.4190 hc         1 XZ3       0.067700
     73 H15        -22.8390    24.1510     4.9900 h1         1 XZ3       0.044700
     74 H16        -22.8900    26.2500     2.7670 hc         1 XZ3       0.063700
     75 H17        -20.3880    26.3390     3.0600 hc         1 XZ3       0.038367
     76 H18        -20.4850    24.9050     4.0990 hc         1 XZ3       0.038367
     77 H19        -20.9550    24.8060     2.3890 hc         1 XZ3       0.038367
     78 H20        -21.5930    26.6980     5.4890 ha         1 XZ3       0.194000
     79 H21        -24.5460    29.2940     3.9370 hc         1 XZ3       0.043367
     80 H22        -24.4960    27.7000     3.1980 hc         1 XZ3       0.043367
     81 H23        -25.4190    27.9610     4.6800 hc         1 XZ3       0.043367
     82 H24        -24.2170    28.9930     6.5810 h1         1 XZ3       0.046700
     83 H25        -23.2530    30.8220     5.5660 h1         1 XZ3       0.058700
     84 H26        -21.6240    32.3690     8.4700 h1         1 XZ3       0.038033
     85 H27        -20.9120    32.2640     6.8480 h1         1 XZ3       0.038033
     86 H28        -22.6270    32.7020     7.0430 h1         1 XZ3       0.038033
     87 H29        -25.1210    23.0550     5.4460 h1         1 XZ3       0.072700
     88 H30        -22.5640    30.1570     3.4270 hc         1 XZ3       0.075700
     89 H31        -20.7080    28.6030     2.8180 hc         1 XZ3       0.043033
     90 H32        -20.8990    29.8760     1.6040 hc         1 XZ3       0.043033
     91 H33        -19.5670    29.9640     2.7790 hc         1 XZ3       0.043033
     92 H34        -20.4430    32.3220     3.3170 hc         1 XZ3       0.044200
     93 H35        -21.8860    32.5000     4.2970 hc         1 XZ3       0.044200
     94 H36        -21.8700    32.0440     1.2810 hc         1 XZ3       0.055700
     95 H37        -21.1060    34.3170     1.8720 hc         1 XZ3       0.037367
     96 H38        -22.7090    34.3680     1.1110 hc         1 XZ3       0.037367
     97 H39        -22.5570    34.5690     2.8700 hc         1 XZ3       0.037367
     98 H40        -24.2400    32.4550     3.2160 ha         1 XZ3       0.166000
     99 H41        -23.9610    31.0160     0.4970 ha         1 XZ3       0.170000
    100 H42        -26.2780    31.1900     2.5940 ha         1 XZ3       0.167000
    101 H43        -26.0680    29.8790    -0.1740 ha         1 XZ3       0.174000
    102 H44        -28.2350    29.7890     2.0710 ha         1 XZ3       0.165000
    103 H45        -27.6870    29.3910    -1.6980 hc         1 XZ3       0.048033
    104 H46        -27.6100    27.6740    -1.2700 hc         1 XZ3       0.048033
    105 H47        -29.1140    28.3850    -1.8710 hc         1 XZ3       0.048033
    106 H48        -30.1320    28.5490     1.7090 h1         1 XZ3       0.034700
    107 H49        -29.8830    26.3930    -0.4380 hc         1 XZ3       0.071200
    108 H50        -28.8830    26.4100     0.9960 hc         1 XZ3       0.071200
    109 H51        -31.9430    26.1360     0.9630 h1         1 XZ3       0.067700
    110 H52        -27.5510    23.3700     5.8700 hc         1 XZ3       0.061700
    111 H53        -27.9450    23.8550     1.2540 h1         1 XZ3       0.068200
    112 H54        -28.9290    23.0750     0.0080 h1         1 XZ3       0.068200
    113 H55        -27.0330    22.0010    -1.0060 hc         1 XZ3       0.053700
    114 H56        -26.6680    23.7130    -0.8150 hc         1 XZ3       0.053700
    115 H57        -24.7260    22.2750    -0.1450 hc         1 XZ3       0.047200
    116 H58        -25.2980    23.2400     1.2100 hc         1 XZ3       0.047200
    117 H59        -26.0050    20.3060     0.5960 hc         1 XZ3       0.066700
    118 H60        -24.9490    20.8250     1.8870 hc         1 XZ3       0.066700
    119 H61        -27.3260    20.1400     2.5110 h1         1 XZ3       0.108700
    120 H62        -30.3640    23.5630     3.7040 hc         1 XZ3       0.070700
    121 H63        -32.1800    22.8750     5.2160 hc         1 XZ3       0.044367
    122 H64        -33.3560    22.8910     3.8950 hc         1 XZ3       0.044367
    123 H65        -32.0560    21.6960     3.9090 hc         1 XZ3       0.044367
    124 H66        -31.6440    25.3760     4.7830 hc         1 XZ3       0.051700
    125 H67        -32.8430    25.3670     3.4970 hc         1 XZ3       0.051700
    126 H68        -29.9070    26.2370     3.2730 hc         1 XZ3       0.048200
    127 H69        -31.3380    27.2340     3.0910 hc         1 XZ3       0.048200
    128 H70        -32.2490    30.2900    -0.7070 h1         1 XZ3       0.031700
    129 H71        -31.6310    30.3440     0.9580 h1         1 XZ3       0.031700
    130 H72        -30.5470    30.6970    -0.4110 h1         1 XZ3       0.031700
    131 H73        -28.8260    25.3250     5.1960 hc         1 XZ3       0.039033
    132 H74        -27.4300    26.0150     4.3470 hc         1 XZ3       0.039033
    133 H75        -28.1850    24.5240     3.7500 hc         1 XZ3       0.039033
    134 H76        -22.7930    21.6060     2.5050 h1         1 XZ3       0.030033
    135 H77        -21.9370    22.1990     3.9420 h1         1 XZ3       0.030033
    136 H78        -23.6800    21.8500     4.0260 h1         1 XZ3       0.030033
    137 H79        -26.3230    26.0320     6.6150 hc         1 XZ3       0.039700
    138 H80        -27.6100    25.1700     7.4000 hc         1 XZ3       0.039700
    139 H81        -23.5660    23.5800    11.9910 ho         1 XZ3       0.514000
    140 H82        -22.1670    28.9030     7.8530 ho         1 XZ3       0.528000
    141 H83        -32.6890    23.5590     0.3240 ho         1 XZ3       0.469000
    142 C16        -23.3970    26.8500    10.8830 c3         1 XZ3       0.148900
    143 O39        -20.1250    29.9870     5.5340 o          1 XZ3      -0.499100
    144 C37        -21.8200    32.0690     7.4330 c3         1 XZ3       0.145900
    145 C79        -31.3810    30.0670    -0.0750 c3         1 XZ3       0.142900
    146 C81        -22.8830    22.2510     3.3880 c3         1 XZ3       0.145900
    147 H5         -23.1300    27.3570    11.8190 h1         1 XZ3       0.032033
    148 H6         -22.4790    26.7060    10.2990 h1         1 XZ3       0.032033
    149 H7         -24.0670    27.5150    10.3230 h1         1 XZ3       0.032033
@<TRIPOS>BOND
     1     1     2 1   
     2     1     7 1   
     3     1    48 1   
     4     1    62 1   
     5     2     3 1   
     6     2    63 1   
     7     2    64 1   
     8     3     4 1   
     9     3    51 1   
    10     3    65 1   
    11     4     6 1   
    12     4    52 1   
    13     4    66 1   
    14     5    42 1   
    15     5    50 2   
    16     5    53 1   
    17     6     7 1   
    18     6    67 1   
    19     6    68 1   
    20     7    69 1   
    21     7    70 1   
    22     8     9 1   
    23     8    18 1   
    24     8    71 1   
    25     8    72 1   
    26     9    10 1   
    27     9    61 1   
    28     9    73 1   
    29    10    11 1   
    30    10    12 1   
    31    10    74 1   
    32    11    75 1   
    33    11    76 1   
    34    11    77 1   
    35    12    13 2   
    36    12    78 1   
    37    13    14 1   
    38    13    15 1   
    39    14    79 1   
    40    14    80 1   
    41    14    81 1   
    42    15    16 1   
    43    15    54 1   
    44    15    82 1   
    45    16    17 1   
    46    16    55 1   
    47    16    83 1   
    48    17    19 1   
    49    17   143 2   
    50    18    34 1   
    51    18    53 1   
    52    18    87 1   
    53    19    20 1   
    54    19    21 1   
    55    19    88 1   
    56    20    89 1   
    57    20    90 1   
    58    20    91 1   
    59    21    22 1   
    60    21    92 1   
    61    21    93 1   
    62    22    23 1   
    63    22    24 1   
    64    22    94 1   
    65    23    95 1   
    66    23    96 1   
    67    23    97 1   
    68    24    25 2   
    69    24    98 1   
    70    25    26 1   
    71    25    99 1   
    72    26    27 2   
    73    26   100 1   
    74    27    28 1   
    75    27   101 1   
    76    28    29 2   
    77    28   102 1   
    78    29    30 1   
    79    29    31 1   
    80    30   103 1   
    81    30   104 1   
    82    30   105 1   
    83    31    32 1   
    84    31    60 1   
    85    31   106 1   
    86    32    33 1   
    87    32   107 1   
    88    32   108 1   
    89    33    46 1   
    90    33    56 1   
    91    33   109 1   
    92    34    47 1   
    93    34    48 1   
    94    34   110 1   
    95    35    36 1   
    96    35    43 1   
    97    35    56 1   
    98    35    57 1   
    99    36    37 1   
   100    36    58 2   
   101    37    49 1   
   102    37    59 2   
   103    38    39 1   
   104    38    49 1   
   105    38   111 1   
   106    38   112 1   
   107    39    40 1   
   108    39   113 1   
   109    39   114 1   
   110    40    41 1   
   111    40   115 1   
   112    40   116 1   
   113    41    42 1   
   114    41   117 1   
   115    41   118 1   
   116    42    49 1   
   117    42   119 1   
   118    43    44 1   
   119    43    45 1   
   120    43   120 1   
   121    44   121 1   
   122    44   122 1   
   123    44   123 1   
   124    45    46 1   
   125    45   124 1   
   126    45   125 1   
   127    46   126 1   
   128    46   127 1   
   129    47   131 1   
   130    47   132 1   
   131    47   133 1   
   132    48   137 1   
   133    48   138 1   
   134    51   142 1   
   135    52   139 1   
   136    54   140 1   
   137    55   144 1   
   138    57   141 1   
   139    60   145 1   
   140    61   146 1   
   141    84   144 1   
   142    85   144 1   
   143    86   144 1   
   144   128   145 1   
   145   129   145 1   
   146   130   145 1   
   147   134   146 1   
   148   135   146 1   
   149   136   146 1   
   150   142   147 1   
   151   142   148 1   
   152   142   149 1   
@<TRIPOS>SUBSTRUCTURE
     1 XZ3         1 TEMP              0 ****  ****    0 ROOT
