@<TRIPOS>MOLECULE
XZ7
   53    55     1     0     0
SMALL
abcg2


@<TRIPOS>ATOM
      1 C4          -9.4700     2.9370   -20.9930 ca         1 XZ7      -0.059000
      2 C5         -10.5650     2.1810   -20.5840 ca         1 XZ7       0.089000
      3 C6         -11.8510     2.5640   -20.9280 ca         1 XZ7      -0.103000
      4 C10         -6.0350     2.5470   -19.5280 c3         1 XZ7      -0.099400
      5 C13         -4.4950     4.0530   -20.8460 c3         1 XZ7       0.296000
      6 C17         -6.2710     1.8400   -18.2090 ca         1 XZ7      -0.077300
      7 C20         -6.7220     0.5130   -15.8070 ca         1 XZ7       0.123000
      8 C21         -6.6820     1.8990   -15.8270 ca         1 XZ7      -0.104500
      9 C22         -6.4620     2.5540   -17.0280 ca         1 XZ7      -0.086500
     10 C26        -12.1920     5.6350   -23.9920 c3         1 XZ7      -0.203400
     11 C31        -10.4800     7.5900   -21.1280 cx         1 XZ7      -0.142400
     12 C32        -11.1620     8.3030   -22.2600 cx         1 XZ7      -0.142400
     13 C30        -11.5440     6.8970   -21.9190 cx         1 XZ7      -0.104700
     14 C25        -11.1700     5.7760   -22.8680 c3         1 XZ7       0.020600
     15 O28        -10.6300     4.3960   -25.2910 o          1 XZ7      -0.735500
     16 O29        -12.8010     3.9760   -25.5820 o          1 XZ7      -0.735500
     17 C2         -10.9730     4.4970   -22.0910 ca         1 XZ7       0.003700
     18 C3          -9.6930     4.0840   -21.7440 ca         1 XZ7      -0.073000
     19 C1         -12.0480     3.7170   -21.6700 ca         1 XZ7      -0.083000
     20 CL7        -10.3160     0.7540   -19.6370 cl         1 XZ7      -0.243000
     21 N8          -8.1610     2.5380   -20.6680 ns         1 XZ7      -0.139000
     22 C9          -7.3430     3.2610   -19.8680 c          1 XZ7       0.612100
     23 O24         -7.6390     4.3450   -19.4060 o          1 XZ7      -0.580100
     24 C11         -4.8270     3.5010   -19.4710 c3         1 XZ7      -0.112700
     25 C12         -3.5990     2.8070   -18.8820 c3         1 XZ7      -0.094100
     26 F15         -4.0380     3.1070   -21.6820 f          1 XZ7      -0.114000
     27 C18         -6.3230     0.4520   -18.1620 ca         1 XZ7      -0.086500
     28 C19         -6.5480    -0.2200   -16.9690 ca         1 XZ7      -0.104500
     29 CL23        -6.9900    -0.3100   -14.3060 cl         1 XZ7      -0.213000
     30 H1         -12.6960     1.9670   -20.6110 ha         1 XZ7       0.117000
     31 H2          -5.8350     1.7790   -20.2800 hc         1 XZ7       0.073700
     32 H3          -6.8220     2.4670   -14.9170 ha         1 XZ7       0.128000
     33 H4          -6.4350     3.6360   -17.0290 ha         1 XZ7       0.126000
     34 H5         -12.2570     6.6020   -24.5050 hc         1 XZ7       0.022700
     35 H6         -13.1910     5.4540   -23.5860 hc         1 XZ7       0.022700
     36 H7         -10.7060     7.9000   -20.1160 hc         1 XZ7       0.063700
     37 H8          -9.4540     7.2720   -21.2730 hc         1 XZ7       0.063700
     38 H9         -10.5960     8.4630   -23.1700 hc         1 XZ7       0.063700
     39 H10        -11.8520     9.1030   -22.0220 hc         1 XZ7       0.063700
     40 H11        -12.5020     6.7690   -21.4230 hc         1 XZ7       0.065700
     41 H12        -10.2090     6.0340   -23.3220 hc         1 XZ7       0.072700
     42 H14         -8.8360     4.6560   -22.0790 ha         1 XZ7       0.132000
     43 H15        -13.0620     4.0020   -21.9210 ha         1 XZ7       0.128000
     44 H16         -7.8770     1.6040   -20.9260 hn         1 XZ7       0.157000
     45 H17         -5.0850     4.3620   -18.8490 hc         1 XZ7       0.100700
     46 H18         -3.7750     2.5560   -17.8390 hc         1 XZ7       0.049033
     47 H19         -3.3660     1.8810   -19.4090 hc         1 XZ7       0.049033
     48 H20         -2.7200     3.4490   -18.9100 hc         1 XZ7       0.049033
     49 H21         -6.1800    -0.1240   -19.0690 ha         1 XZ7       0.126000
     50 H22         -6.5820    -1.3010   -16.9500 ha         1 XZ7       0.128000
     51 C27        -11.8410     4.5630   -25.0420 c          1 XZ7       0.716000
     52 F16         -5.5450     4.6190   -21.4600 f          1 XZ7      -0.114000
     53 F14         -3.5450     4.9960   -20.7760 f          1 XZ7      -0.114000
@<TRIPOS>BOND
     1     1     2 ar  
     2     1    18 ar  
     3     1    21 1   
     4     2     3 ar  
     5     2    20 1   
     6     3    19 ar  
     7     3    30 1   
     8     4     6 1   
     9     4    22 1   
    10     4    24 1   
    11     4    31 1   
    12     5    24 1   
    13     5    26 1   
    14     5    52 1   
    15     5    53 1   
    16     6     9 ar  
    17     6    27 ar  
    18     7     8 ar  
    19     7    28 ar  
    20     7    29 1   
    21     8     9 ar  
    22     8    32 1   
    23     9    33 1   
    24    10    14 1   
    25    10    34 1   
    26    10    35 1   
    27    10    51 1   
    28    11    12 1   
    29    11    13 1   
    30    11    36 1   
    31    11    37 1   
    32    12    13 1   
    33    12    38 1   
    34    12    39 1   
    35    13    14 1   
    36    13    40 1   
    37    14    17 1   
    38    14    41 1   
    39    15    51 1   
    40    16    51 1   
    41    17    18 ar  
    42    17    19 ar  
    43    18    42 1   
    44    19    43 1   
    45    21    22 1   
    46    21    44 1   
    47    22    23 2   
    48    24    25 1   
    49    24    45 1   
    50    25    46 1   
    51    25    47 1   
    52    25    48 1   
    53    27    28 ar  
    54    27    49 1   
    55    28    50 1   
@<TRIPOS>SUBSTRUCTURE
     1 XZ7         1 TEMP              0 ****  ****    0 ROOT
