@<TRIPOS>MOLECULE
XZ7
   53    55     1     0     0
SMALL
No Charge or Current Charge


@<TRIPOS>ATOM
      1 C4          -9.4880     2.8910   -21.3330 ca         1 XZ7      -0.059000
      2 C5         -10.4280     1.9380   -21.7780 ca         1 XZ7       0.089000
      3 C6         -11.6030     2.3440   -22.4290 ca         1 XZ7      -0.103000
      4 C10         -6.1820     2.1210   -19.4700 c3         1 XZ7      -0.099400
      5 C13         -4.7350     2.2720   -21.6600 c3         1 XZ7       0.296000
      6 C17         -6.1890     2.1600   -17.9350 ca         1 XZ7      -0.077300
      7 C20         -6.2140     2.2080   -15.1120 ca         1 XZ7       0.123000
      8 C21         -5.7240     3.3110   -15.8280 ca         1 XZ7      -0.104500
      9 C22         -5.7120     3.2890   -17.2330 ca         1 XZ7      -0.086500
     10 C26        -11.3740     6.5400   -23.9500 c3         1 XZ7      -0.203400
     11 C31        -12.2300     6.8710   -20.1260 cx         1 XZ7      -0.142400
     12 C32        -12.4530     8.0380   -21.0610 cx         1 XZ7      -0.142400
     13 C30        -12.3750     6.6330   -21.6110 cx         1 XZ7      -0.104700
     14 C25        -11.1840     6.1710   -22.4530 c3         1 XZ7       0.020600
     15 O28         -9.2190     7.0930   -24.7700 o          1 XZ7      -0.735500
     16 O29         -9.9940     5.1570   -25.3020 o          1 XZ7      -0.735500
     17 C2         -10.9210     4.6770   -22.2270 ca         1 XZ7       0.003700
     18 C3          -9.7450     4.2620   -21.5680 ca         1 XZ7      -0.073000
     19 C1         -11.8510     3.7070   -22.6500 ca         1 XZ7      -0.083000
     20 Cl7        -10.1520     0.2150   -21.5190 cl         1 XZ7      -0.243000
     21 N8          -8.3160     2.4190   -20.6740 ns         1 XZ7      -0.139000
     22 C9          -7.2820     3.0690   -20.0120 c          1 XZ7       0.612100
     23 O24         -7.2300     4.2830   -19.8450 o          1 XZ7      -0.580100
     24 C11         -4.7630     2.3850   -20.0990 c3         1 XZ7      -0.112700
     25 C12         -3.6860     1.4660   -19.4490 c3         1 XZ7      -0.094100
     26 F15         -5.1550     1.0520   -22.0690 f          1 XZ7      -0.114000
     27 C18         -6.6830     1.0580   -17.2050 ca         1 XZ7      -0.086500
     28 C19         -6.6940     1.0820   -15.7990 ca         1 XZ7      -0.104500
     29 Cl23        -6.2280     2.2360   -13.3540 cl         1 XZ7      -0.213000
     30 H1         -12.3230     1.6010   -22.7620 ha         1 XZ7       0.117000
     31 H2          -6.4640     1.1050   -19.7740 hc         1 XZ7       0.073700
     32 H3          -5.3550     4.1830   -15.2940 ha         1 XZ7       0.128000
     33 H4          -5.3340     4.1540   -17.7740 ha         1 XZ7       0.126000
     34 H5         -11.5650     7.6200   -23.9580 hc         1 XZ7       0.022700
     35 H6         -12.2160     5.9500   -24.3290 hc         1 XZ7       0.022700
     36 H7         -13.0540     6.5700   -19.4840 hc         1 XZ7       0.063700
     37 H8         -11.2430     6.7570   -19.6840 hc         1 XZ7       0.063700
     38 H9         -11.6160     8.7070   -21.2440 hc         1 XZ7       0.063700
     39 H10        -13.4270     8.5220   -21.0470 hc         1 XZ7       0.063700
     40 H11        -13.3140     6.1890   -21.9370 hc         1 XZ7       0.065700
     41 H12        -10.3040     6.7320   -22.1100 hc         1 XZ7       0.072700
     42 H14         -9.0380     5.0210   -21.2500 ha         1 XZ7       0.132000
     43 H15        -12.7700     4.0070   -23.1490 ha         1 XZ7       0.128000
     44 H16         -8.2200     1.4120   -20.6980 hn         1 XZ7       0.157000
     45 H17         -4.4790     3.4190   -19.8640 hc         1 XZ7       0.100700
     46 H18         -3.6230     1.6240   -18.3660 hc         1 XZ7       0.049033
     47 H19         -3.9170     0.4080   -19.6250 hc         1 XZ7       0.049033
     48 H20         -2.6890     1.6690   -19.8580 hc         1 XZ7       0.049033
     49 H21         -7.0580     0.1780   -17.7230 ha         1 XZ7       0.126000
     50 H22         -7.0740     0.2290   -15.2430 ha         1 XZ7       0.128000
     51 C27        -10.0930     6.2400   -24.7470 c          1 XZ7       0.716000
     52 F16         -5.5260     3.1980   -22.2460 f          1 XZ7      -0.114000
     53 F14         -3.4850     2.4590   -22.1420 f          1 XZ7      -0.114000
@<TRIPOS>BOND
     1     1     2 ar  
     2     1    18 ar  
     3     1    21 1   
     4     2     3 ar  
     5     2    20 1   
     6     3    19 ar  
     7     3    30 1   
     8     4     6 1   
     9     4    22 1   
    10     4    24 1   
    11     4    31 1   
    12     5    24 1   
    13     5    26 1   
    14     5    52 1   
    15     5    53 1   
    16     6     9 ar  
    17     6    27 ar  
    18     7     8 ar  
    19     7    28 ar  
    20     7    29 1   
    21     8     9 ar  
    22     8    32 1   
    23     9    33 1   
    24    10    14 1   
    25    10    34 1   
    26    10    35 1   
    27    10    51 1   
    28    11    12 1   
    29    11    13 1   
    30    11    36 1   
    31    11    37 1   
    32    12    13 1   
    33    12    38 1   
    34    12    39 1   
    35    13    14 1   
    36    13    40 1   
    37    14    17 1   
    38    14    41 1   
    39    15    51 1   
    40    16    51 1   
    41    17    18 ar  
    42    17    19 ar  
    43    18    42 1   
    44    19    43 1   
    45    21    22 1   
    46    21    44 1   
    47    22    23 2   
    48    24    25 1   
    49    24    45 1   
    50    25    46 1   
    51    25    47 1   
    52    25    48 1   
    53    27    28 ar  
    54    27    49 1   
    55    28    50 1   
@<TRIPOS>SUBSTRUCTURE
     1 XZ7         1 TEMP              0 ****  ****    0 ROOT
