@<TRIPOS>MOLECULE
XZ8
   32    34     1     0     0
SMALL
bcc


@<TRIPOS>ATOM
      1 C01         -2.4650     3.1550    -0.1250 c3         1 XZ8      -0.179100
      2 C02         -2.8090     1.6940    -0.1460 c          1 XZ8       0.688100
      3 O03         -3.9460     1.2870    -0.2220 o          1 XZ8      -0.542100
      4 N04         -1.7410     0.8130    -0.0690 n          1 XZ8      -0.253200
      5 C05         -0.4010     1.1820    -0.0050 cc         1 XZ8      -0.087400
      6 C06          0.3930     0.0860     0.0560 cd         1 XZ8      -0.016200
      7 C07          1.8400     0.0780     0.1600 cd         1 XZ8      -0.211200
      8 C08          2.6270     0.8720     0.9490 cc         1 XZ8       0.111800
      9 C09          2.2490     1.8730     1.9760 c3         1 XZ8      -0.051900
     10 N10          3.9320     0.6430     0.6610 na         1 XZ8      -0.493000
     11 N11          3.9920    -0.4360    -0.1850 ns         1 XZ8      -0.411300
     12 C12          2.7280    -0.7450    -0.6350 c          1 XZ8       0.692700
     13 O13          2.4880    -1.5430    -1.5360 o          1 XZ8      -0.609500
     14 C14         -0.4880    -1.0590     0.0320 ca         1 XZ8      -0.082800
     15 C15         -0.2450    -2.4300     0.0970 ca         1 XZ8      -0.067000
     16 C16         -1.3210    -3.2970     0.0680 ca         1 XZ8      -0.151000
     17 C17         -2.6280    -2.8090    -0.0270 ca         1 XZ8      -0.114000
     18 C18         -2.8950    -1.4500    -0.0850 ca         1 XZ8      -0.124000
     19 C19         -1.8080    -0.5810    -0.0500 ca         1 XZ8       0.014600
     20 H1          -1.8190     3.4260    -0.9610 hc         1 XZ8       0.068700
     21 H2          -3.3800     3.7360    -0.1930 hc         1 XZ8       0.068700
     22 H3          -1.9470     3.4280     0.7950 hc         1 XZ8       0.068700
     23 H4          -0.1100     2.2190    -0.0320 h4         1 XZ8       0.161000
     24 H6           2.9790     1.9100     2.7840 hc         1 XZ8       0.059033
     25 H7           2.1900     2.8700     1.5380 hc         1 XZ8       0.059033
     26 H8           1.2740     1.6380     2.3970 hc         1 XZ8       0.059033
     27 H9           4.8080    -0.5080    -0.7770 hn         1 XZ8       0.338500
     28 H10          0.7650    -2.8080     0.1710 ha         1 XZ8       0.145000
     29 H11         -1.1540    -4.3650     0.1170 ha         1 XZ8       0.131000
     30 H12         -3.4550    -3.5060    -0.0530 ha         1 XZ8       0.130000
     31 H13         -3.9120    -1.0990    -0.1520 ha         1 XZ8       0.158000
     32 H5           4.6360     0.6770     1.3860 hn         1 XZ8       0.441800
@<TRIPOS>BOND
     1     1     2 1   
     2     1    20 1   
     3     1    21 1   
     4     1    22 1   
     5     2     3 2   
     6     2     4 1   
     7     4     5 1   
     8     4    19 1   
     9     5     6 2   
    10     5    23 1   
    11     6     7 1   
    12     6    14 1   
    13     7     8 2   
    14     7    12 1   
    15     8     9 1   
    16     8    10 1   
    17     9    24 1   
    18     9    25 1   
    19     9    26 1   
    20    10    11 1   
    21    10    32 1   
    22    11    12 1   
    23    11    27 1   
    24    12    13 2   
    25    14    15 ar  
    26    14    19 ar  
    27    15    16 ar  
    28    15    28 1   
    29    16    17 ar  
    30    16    29 1   
    31    17    18 ar  
    32    17    30 1   
    33    18    19 ar  
    34    18    31 1   
@<TRIPOS>SUBSTRUCTURE
     1 XZ8         1 TEMP              0 ****  ****    0 ROOT
