@<TRIPOS>MOLECULE
XZ8
   32    34     1     0     0
SMALL
No Charge or Current Charge


@<TRIPOS>ATOM
      1 C01         -2.4400     3.1910     0.2520 c3         1 XZ8      -0.179100
      2 C02         -2.7590     1.7130     0.0070 c          1 XZ8       0.621100
      3 O03         -3.9180     1.3840    -0.2220 o          1 XZ8      -0.542100
      4 N04         -1.6910     0.7670     0.0590 n          1 XZ8      -0.093600
      5 C05         -0.3400     1.0730     0.2800 cc         1 XZ8      -0.137400
      6 C06          0.4250    -0.0790     0.2360 cd         1 XZ8      -0.016200
      7 C07          1.8830    -0.0390     0.2820 cd         1 XZ8      -0.211200
      8 C08          2.5750     1.0650     0.8050 cc         1 XZ8       0.111800
      9 C09          2.1780     2.3300     1.5230 c3         1 XZ8      -0.051900
     10 N10          3.8910     0.6690     0.6580 na         1 XZ8      -0.548200
     11 N11          4.0650    -0.6000     0.0990 ns         1 XZ8      -0.344300
     12 C12          2.8290    -1.0830    -0.2110 c          1 XZ8       0.550200
     13 O13          2.6160    -2.1030    -0.8460 o          1 XZ8      -0.534000
     14 C14         -0.5060    -1.1920     0.0000 ca         1 XZ8      -0.082800
     15 C15         -0.3110    -2.5840    -0.0160 ca         1 XZ8      -0.049000
     16 C16         -1.4280    -3.4200    -0.2190 ca         1 XZ8      -0.133000
     17 C17         -2.7180    -2.8690    -0.3720 ca         1 XZ8      -0.096000
     18 C18         -2.9100    -1.4750    -0.3040 ca         1 XZ8      -0.106000
     19 C19         -1.7840    -0.6540    -0.1120 ca         1 XZ8      -0.078000
     20 H1          -1.6990     3.5250    -0.4830 hc         1 XZ8       0.068700
     21 H2          -3.3350     3.8220     0.2240 hc         1 XZ8       0.068700
     22 H3          -1.9080     3.2940     1.2040 hc         1 XZ8       0.068700
     23 H4          -0.0700     2.1140     0.3600 h4         1 XZ8       0.211000
     24 H6           3.0110     2.7160     2.1230 hc         1 XZ8       0.059033
     25 H7           1.8970     3.1160     0.8130 hc         1 XZ8       0.059033
     26 H8           1.3440     2.1530     2.2120 hc         1 XZ8       0.059033
     27 H9           4.8650    -0.8640    -0.4740 hn         1 XZ8       0.338500
     28 H10          0.6600    -3.0300     0.1610 ha         1 XZ8       0.127000
     29 H11         -1.2960    -4.5000    -0.2400 ha         1 XZ8       0.113000
     30 H12         -3.5730    -3.5260    -0.5190 ha         1 XZ8       0.112000
     31 H13         -3.9140    -1.0680    -0.3900 ha         1 XZ8       0.140000
     32 H5           4.7370     1.1060     1.0420 hn         1 XZ8       0.497000
@<TRIPOS>BOND
     1     1     2 1   
     2     1    20 1   
     3     1    21 1   
     4     1    22 1   
     5     2     3 2   
     6     2     4 1   
     7     4     5 1   
     8     4    19 1   
     9     5     6 2   
    10     5    23 1   
    11     6     7 1   
    12     6    14 1   
    13     7     8 2   
    14     7    12 1   
    15     8     9 1   
    16     8    10 1   
    17     9    24 1   
    18     9    25 1   
    19     9    26 1   
    20    10    11 1   
    21    10    32 1   
    22    11    12 1   
    23    11    27 1   
    24    12    13 2   
    25    14    15 ar  
    26    14    19 ar  
    27    15    16 ar  
    28    15    28 1   
    29    16    17 ar  
    30    16    29 1   
    31    17    18 ar  
    32    17    30 1   
    33    18    19 ar  
    34    18    31 1   
@<TRIPOS>SUBSTRUCTURE
     1 XZ8         1 TEMP              0 ****  ****    0 ROOT
