@<TRIPOS>MOLECULE
XZ9
   60    65     1     0     0
SMALL
No Charge or Current Charge


@<TRIPOS>ATOM
      1 C1         196.0850   215.2520   221.9750 c3         1 XZ9       0.166600
      2 C10        193.1130   209.5630   218.3340 ca         1 XZ9      -0.101300
      3 C11        191.7710   208.9400   217.9440 c3         1 XZ9       0.150900
      4 C12        190.8050   206.3550   220.1880 cc         1 XZ9       0.436500
      5 C13        190.2420   205.8490   221.4430 ca         1 XZ9      -0.106900
      6 C14        190.6570   206.4150   222.6750 ca         1 XZ9      -0.038000
      7 C15        190.0670   205.9550   223.8600 ca         1 XZ9       0.100400
      8 C16        189.0930   204.9970   223.8360 ca         1 XZ9       0.019100
      9 C17        188.6240   204.4340   222.6440 ca         1 XZ9      -0.086000
     10 C18        189.2030   204.8790   221.4370 ca         1 XZ9      -0.116000
     11 C19        189.4700   205.5740   225.8110 cc         1 XZ9       0.765500
     12 C2         197.3850   214.8240   221.2780 c3         1 XZ9      -0.158400
     13 C20        191.2610   205.5520   219.0760 ca         1 XZ9      -0.380900
     14 C21        191.4610   204.1890   218.8780 ca         1 XZ9       0.455900
     15 C22        192.2810   204.6710   216.7950 ca         1 XZ9       0.195900
     16 C23        191.6480   206.4300   218.1030 ca         1 XZ9       0.164500
     17 C24        193.2260   210.9630   218.4400 ca         1 XZ9      -0.086000
     18 C25        196.9360   211.3750   219.4220 c6         1 XZ9       0.135300
     19 C3         197.3710   213.3160   221.0030 c          1 XZ9       0.604100
     20 C4         195.9970   213.5920   218.8470 c6         1 XZ9       0.106000
     21 C5         194.5420   213.0840   218.9090 c6         1 XZ9      -0.048100
     22 C6         194.4520   211.5620   218.7870 ca         1 XZ9      -0.075300
     23 C7         195.5830   210.7560   219.0390 ca         1 XZ9      -0.081300
     24 C8         195.4730   209.3580   218.9260 ca         1 XZ9      -0.105000
     25 C9         194.2500   208.7640   218.5740 ca         1 XZ9      -0.083000
     26 N1         196.8570   212.8190   219.7790 n          1 XZ9      -0.412800
     27 N2         191.4460   207.6830   218.6500 na         1 XZ9      -0.033100
     28 N3         190.9440   207.6640   219.9470 nd         1 XZ9      -0.505100
     29 N4         189.3320   205.6130   227.1310 nv         1 XZ9      -1.022200
     30 N5         190.3230   206.3500   225.1580 nd         1 XZ9      -0.646100
     31 N6         191.9660   203.7340   217.7230 nb         1 XZ9      -0.311000
     32 N7         192.1630   206.0120   216.9300 nb         1 XZ9      -0.239000
     33 O1         196.1240   216.6610   222.2210 oh         1 XZ9      -0.669000
     34 O2         188.6670   204.7170   225.0920 os         1 XZ9      -0.320700
     35 O3         197.8270   212.5500   221.8430 o          1 XZ9      -0.607100
     36 H1         195.2250   214.9990   221.3410 h1         1 XZ9       0.029200
     37 H2         195.9800   214.7010   222.9200 h1         1 XZ9       0.029200
     38 H3         190.9650   209.6560   218.1450 h1         1 XZ9       0.076200
     39 H4         191.7700   208.7490   216.8640 h1         1 XZ9       0.076200
     40 H5         191.4230   207.1860   222.7080 ha         1 XZ9       0.148000
     41 H6         187.8330   203.6880   222.6500 ha         1 XZ9       0.133000
     42 H7         188.8350   204.4810   220.4930 ha         1 XZ9       0.125000
     43 H8         198.2280   215.0600   221.9370 hc         1 XZ9       0.077700
     44 H9         197.4740   215.3890   220.3460 hc         1 XZ9       0.077700
     45 H10        192.6910   204.3090   215.8530 h5         1 XZ9       0.047100
     46 H11        192.3570   211.5910   218.2530 ha         1 XZ9       0.112000
     47 H12        197.3620   210.7910   220.2500 h1         1 XZ9       0.070700
     48 H13        197.6250   211.2620   218.5730 h1         1 XZ9       0.070700
     49 H14        196.3790   213.4590   217.8240 h1         1 XZ9       0.054200
     50 H15        196.0080   214.6690   219.0520 h1         1 XZ9       0.054200
     51 H16        193.9550   213.5660   218.1150 hc         1 XZ9       0.056700
     52 H17        194.0890   213.3930   219.8610 hc         1 XZ9       0.056700
     53 H18        196.3410   208.7270   219.1100 ha         1 XZ9       0.118000
     54 H19        194.1930   207.6820   218.4890 ha         1 XZ9       0.123000
     55 H20        189.6840   206.4590   227.5600 hn         1 XZ9       0.505500
     56 H21        188.4470   205.2740   227.4860 hn         1 XZ9       0.505500
     57 H22        191.6170   202.3220   219.6670 hn         1 XZ9       0.506500
     58 H23        191.0830   203.5390   220.7750 hn         1 XZ9       0.506500
     59 H24        195.2870   216.8960   222.6830 ho         1 XZ9       0.446000
     60 N8         191.2220   203.2470   219.8130 nv         1 XZ9      -1.071900
@<TRIPOS>BOND
     1     1    12 1   
     2     1    33 1   
     3     1    36 1   
     4     1    37 1   
     5     2     3 1   
     6     2    17 ar  
     7     2    25 ar  
     8     3    27 1   
     9     3    38 1   
    10     3    39 1   
    11     4     5 1   
    12     4    13 1   
    13     4    28 2   
    14     5     6 ar  
    15     5    10 ar  
    16     6     7 ar  
    17     6    40 1   
    18     7     8 ar  
    19     7    30 1   
    20     8     9 ar  
    21     8    34 1   
    22     9    10 ar  
    23     9    41 1   
    24    10    42 1   
    25    11    29 1   
    26    11    30 2   
    27    11    34 1   
    28    12    19 1   
    29    12    43 1   
    30    12    44 1   
    31    13    14 ar  
    32    13    16 ar  
    33    14    31 ar  
    34    14    60 1   
    35    15    31 ar  
    36    15    32 ar  
    37    15    45 1   
    38    16    27 1   
    39    16    32 ar  
    40    17    22 ar  
    41    17    46 1   
    42    18    23 1   
    43    18    26 1   
    44    18    47 1   
    45    18    48 1   
    46    19    26 1   
    47    19    35 2   
    48    20    21 1   
    49    20    26 1   
    50    20    49 1   
    51    20    50 1   
    52    21    22 1   
    53    21    51 1   
    54    21    52 1   
    55    22    23 ar  
    56    23    24 ar  
    57    24    25 ar  
    58    24    53 1   
    59    25    54 1   
    60    27    28 1   
    61    29    55 1   
    62    29    56 1   
    63    33    59 1   
    64    57    60 1   
    65    58    60 1   
@<TRIPOS>SUBSTRUCTURE
     1 XZ9         1 TEMP              0 ****  ****    0 ROOT
