@<TRIPOS>MOLECULE
XZ9
   60    65     1     0     0
SMALL
abcg2


@<TRIPOS>ATOM
      1 C1         195.2500   214.5150   222.5020 c3         1 XZ9       0.166600
      2 C10        193.3590   209.3030   217.9510 ca         1 XZ9      -0.101300
      3 C11        192.1690   208.6070   217.3380 c3         1 XZ9       0.150900
      4 C12        191.0160   206.4120   219.8730 cc         1 XZ9       0.436500
      5 C13        190.5620   206.2440   221.2630 ca         1 XZ9      -0.106900
      6 C14        191.2760   206.8650   222.2970 ca         1 XZ9      -0.038000
      7 C15        190.8170   206.7020   223.5950 ca         1 XZ9       0.100400
      8 C16        189.6710   205.9340   223.8310 ca         1 XZ9       0.019100
      9 C17        188.9430   205.3150   222.8430 ca         1 XZ9      -0.086000
     10 C18        189.4120   205.4870   221.5380 ca         1 XZ9      -0.116000
     11 C19        190.4730   206.7000   225.6980 cc         1 XZ9       0.765500
     12 C2         196.6340   214.4440   221.8680 c3         1 XZ9      -0.158400
     13 C20        191.1920   205.4380   218.8420 ca         1 XZ9      -0.380900
     14 C21        191.1160   204.0340   218.6620 ca         1 XZ9       0.455900
     15 C22        191.8210   204.3440   216.4830 ca         1 XZ9       0.195900
     16 C23        191.6590   206.1680   217.7340 ca         1 XZ9       0.164500
     17 C24        193.3110   210.6620   218.2250 ca         1 XZ9      -0.086000
     18 C25        196.7620   211.2820   219.7180 c6         1 XZ9       0.135300
     19 C3         196.9630   213.0400   221.3890 c          1 XZ9       0.604100
     20 C4         195.6880   213.4310   219.2620 c6         1 XZ9       0.106000
     21 C5         194.3080   212.8100   219.0860 c6         1 XZ9      -0.048100
     22 C6         194.3960   211.3340   218.7930 ca         1 XZ9      -0.075300
     23 C7         195.5530   210.6180   219.1000 ca         1 XZ9      -0.081300
     24 C8         195.6050   209.2500   218.8210 ca         1 XZ9      -0.105000
     25 C9         194.5250   208.5960   218.2520 ca         1 XZ9      -0.083000
     26 N1         196.4800   212.6310   220.1920 n          1 XZ9      -0.412800
     27 N2         191.7390   207.4610   218.1220 na         1 XZ9      -0.033100
     28 N3         191.3500   207.6110   219.4170 nd         1 XZ9      -0.505100
     29 N4         190.5150   206.8210   227.0310 nv         1 XZ9      -1.022200
     30 N5         191.3030   207.1770   224.8130 nd         1 XZ9      -0.646100
     31 N6         191.4230   203.5180   217.4570 nb         1 XZ9      -0.311000
     32 N7         191.9780   205.6600   216.5310 nb         1 XZ9      -0.239000
     33 O1         195.0800   215.8360   223.0200 oh         1 XZ9      -0.669000
     34 O2         189.4510   205.9350   225.1950 os         1 XZ9      -0.320700
     35 O3         197.6390   212.2950   222.1070 o          1 XZ9      -0.607100
     36 H1         194.4740   214.2940   221.7640 h1         1 XZ9       0.029200
     37 H2         195.1750   213.7740   223.3050 h1         1 XZ9       0.029200
     38 H3         191.3340   209.3010   217.2390 h1         1 XZ9       0.076200
     39 H4         192.4060   208.2180   216.3480 h1         1 XZ9       0.076200
     40 H5         192.1650   207.4420   222.0830 ha         1 XZ9       0.148000
     41 H6         188.0550   204.7360   223.0550 ha         1 XZ9       0.133000
     42 H7         188.8580   205.0470   220.7200 ha         1 XZ9       0.125000
     43 H8         197.3800   214.6910   222.6220 hc         1 XZ9       0.077700
     44 H9         196.7090   215.1800   221.0680 hc         1 XZ9       0.077700
     45 H10        192.0520   203.8680   215.5340 h5         1 XZ9       0.047100
     46 H11        192.4090   211.2190   217.9970 ha         1 XZ9       0.112000
     47 H12        197.1220   210.6980   220.5610 h1         1 XZ9       0.070700
     48 H13        197.5740   211.3220   218.9810 h1         1 XZ9       0.070700
     49 H14        196.2130   213.4510   218.3020 h1         1 XZ9       0.054200
     50 H15        195.6060   214.4530   219.6130 h1         1 XZ9       0.054200
     51 H16        193.7790   213.3210   218.2780 hc         1 XZ9       0.056700
     52 H17        193.7220   212.9690   219.9960 hc         1 XZ9       0.056700
     53 H18        196.5050   208.6940   219.0590 ha         1 XZ9       0.118000
     54 H19        194.5810   207.5330   218.0510 ha         1 XZ9       0.123000
     55 H20        191.1390   207.5090   227.4200 hn         1 XZ9       0.505500
     56 H21        189.6940   206.5860   227.5660 hn         1 XZ9       0.505500
     57 H22        190.7860   202.1900   219.4440 hn         1 XZ9       0.506500
     58 H23        190.5850   203.4920   220.5700 hn         1 XZ9       0.506500
     59 H24        194.1990   215.8950   223.4110 ho         1 XZ9       0.446000
     60 N8         190.7550   203.1790   219.6290 nv         1 XZ9      -1.071900
@<TRIPOS>BOND
     1     1    12 1   
     2     1    33 1   
     3     1    36 1   
     4     1    37 1   
     5     2     3 1   
     6     2    17 ar  
     7     2    25 ar  
     8     3    27 1   
     9     3    38 1   
    10     3    39 1   
    11     4     5 1   
    12     4    13 1   
    13     4    28 2   
    14     5     6 ar  
    15     5    10 ar  
    16     6     7 ar  
    17     6    40 1   
    18     7     8 ar  
    19     7    30 1   
    20     8     9 ar  
    21     8    34 1   
    22     9    10 ar  
    23     9    41 1   
    24    10    42 1   
    25    11    29 1   
    26    11    30 2   
    27    11    34 1   
    28    12    19 1   
    29    12    43 1   
    30    12    44 1   
    31    13    14 ar  
    32    13    16 ar  
    33    14    31 ar  
    34    14    60 1   
    35    15    31 ar  
    36    15    32 ar  
    37    15    45 1   
    38    16    27 1   
    39    16    32 ar  
    40    17    22 ar  
    41    17    46 1   
    42    18    23 1   
    43    18    26 1   
    44    18    47 1   
    45    18    48 1   
    46    19    26 1   
    47    19    35 2   
    48    20    21 1   
    49    20    26 1   
    50    20    49 1   
    51    20    50 1   
    52    21    22 1   
    53    21    51 1   
    54    21    52 1   
    55    22    23 ar  
    56    23    24 ar  
    57    24    25 ar  
    58    24    53 1   
    59    25    54 1   
    60    27    28 1   
    61    29    55 1   
    62    29    56 1   
    63    33    59 1   
    64    57    60 1   
    65    58    60 1   
@<TRIPOS>SUBSTRUCTURE
     1 XZ9         1 TEMP              0 ****  ****    0 ROOT
