@<TRIPOS>MOLECULE
XZA
    8     7     1     0     0
SMALL
No Charge or Current Charge


@<TRIPOS>ATOM
      1 C           -0.6370    -0.0060    -0.0940 c          1 XZA       0.731000
      2 O           -1.5460    -0.8120    -0.0150 o          1 XZA      -0.732500
      3 NA           0.6500    -0.4880     0.1520 ns         1 XZA      -0.434300
      4 N            1.8890     0.2810     0.1170 n8         1 XZA      -0.734200
      5 OXT         -0.7930     1.1720    -0.3690 o          1 XZA      -0.732500
      6 HNA          0.7080    -1.4790     0.3750 hn         1 XZA       0.216500
      7 HN2          2.3660     0.2480     1.0290 hn         1 XZA       0.342500
      8 HN1          2.5410    -0.1050    -0.5800 hn         1 XZA       0.342500
@<TRIPOS>BOND
     1     1     2 1   
     2     1     3 1   
     3     1     5 1   
     4     3     4 1   
     5     3     6 1   
     6     4     7 1   
     7     4     8 1   
@<TRIPOS>SUBSTRUCTURE
     1 XZA         1 TEMP              0 ****  ****    0 ROOT
