@<TRIPOS>MOLECULE
XZA
    8     7     1     0     0
SMALL
bcc


@<TRIPOS>ATOM
      1 C           -0.5890     0.0070    -0.0840 c          1 XZA       1.008600
      2 O           -1.5120    -0.8180     0.1020 o          1 XZA      -0.837800
      3 NA           0.7030    -0.5650    -0.0890 ns         1 XZA      -0.501300
      4 N            1.8180     0.2570     0.0520 n8         1 XZA      -0.623800
      5 OXT         -0.6950     1.2280    -0.2950 o          1 XZA      -0.837800
      6 HNA          0.7480    -1.4520     0.3940 hn         1 XZA       0.216500
      7 HN2          2.1240     0.2880     1.0180 hn         1 XZA       0.287300
      8 HN1          2.5810    -0.1350    -0.4830 hn         1 XZA       0.287300
@<TRIPOS>BOND
     1     1     2 1   
     2     1     3 1   
     3     1     5 1   
     4     3     4 1   
     5     3     6 1   
     6     4     7 1   
     7     4     8 1   
@<TRIPOS>SUBSTRUCTURE
     1 XZA         1 TEMP              0 ****  ****    0 ROOT
