@<TRIPOS>MOLECULE
XZB
   52    55     1     0     0
SMALL
No Charge or Current Charge


@<TRIPOS>ATOM
      1 C01          4.3530    -4.4440    -0.0990 c3         1 XZB       0.078300
      2 N05          3.2410    -3.4660    -0.0400 n          1 XZB      -0.276000
      3 C06          3.4650    -2.1180    -0.3550 cc         1 XZB      -0.007400
      4 C08          2.4700    -1.1470    -0.3720 cd         1 XZB      -0.104400
      5 C09          2.8120     0.2650    -0.6800 ca         1 XZB      -0.034800
      6 C10          1.8910     1.1230    -1.3180 ca         1 XZB      -0.075000
      7 C12          2.2300     2.4540    -1.6080 ca         1 XZB      -0.111000
      8 C14          3.4990     2.9500    -1.2780 ca         1 XZB      -0.056000
      9 C16          4.4510     2.1080    -0.6660 ca         1 XZB      -0.194300
     10 C17          4.0960     0.7730    -0.3730 ca         1 XZB      -0.059000
     11 C19          5.8420     2.6330    -0.2920 c3         1 XZB       0.357300
     12 F20          6.2030     3.7180    -1.0150 f          1 XZB      -0.113000
     13 F21          5.8980     2.9900     1.0100 f          1 XZB      -0.113000
     14 F22          6.8050     1.7030    -0.4890 f          1 XZB      -0.113000
     15 C23          1.1620    -1.5880     0.0720 cd         1 XZB      -0.111800
     16 S24         -0.2750    -0.5820     0.3620 ss         1 XZB       0.343000
     17 C25         -1.2040    -2.0190     0.8290 cd         1 XZB      -0.309900
     18 C26         -0.4040    -3.1410     0.8180 cc         1 XZB      -0.037000
     19 C28          0.9320    -2.8990     0.4000 cc         1 XZB      -0.219600
     20 C29          1.9710    -3.9440     0.3430 c          1 XZB       0.586600
     21 O30          1.7580    -5.1200     0.6170 o          1 XZB      -0.546000
     22 C31         -2.6030    -1.9040     1.2100 cf         1 XZB       0.730800
     23 N32         -3.2450    -3.0480     1.4330 nv         1 XZB      -1.066200
     24 N34         -3.1360    -0.7660     1.4570 n2         1 XZB      -0.706900
     25 C36         -4.2590    -0.2930     0.6310 c6         1 XZB       0.141500
     26 C38         -5.2180     0.5930     1.4720 c6         1 XZB      -0.056900
     27 C41         -6.4830     1.0340     0.6810 c6         1 XZB      -0.297900
     28 S44         -6.0920     2.0090    -0.7980 s6         1 XZB       1.075000
     29 O45         -7.2930     2.1000    -1.6390 o          1 XZB      -0.517000
     30 O46         -5.3870     3.2310    -0.3900 o          1 XZB      -0.517000
     31 C47         -4.9070     0.8830    -1.5860 c6         1 XZB      -0.297900
     32 C50         -3.7520     0.4520    -0.6380 c6         1 XZB      -0.056900
     33 H011         4.4960    -4.9000     0.8890 h1         1 XZB       0.056367
     34 H012         4.1140    -5.2310    -0.8250 h1         1 XZB       0.056367
     35 H013         5.2880    -3.9580    -0.4010 h1         1 XZB       0.056367
     36 H06          4.4980    -1.9350    -0.6290 h4         1 XZB       0.204000
     37 H10          0.9210     0.7570    -1.6400 ha         1 XZB       0.126000
     38 H17          4.8210     0.1390     0.1320 ha         1 XZB       0.128000
     39 H12          1.5080     3.1020    -2.1010 ha         1 XZB       0.126000
     40 H14          3.7380     3.9870    -1.5060 ha         1 XZB       0.134000
     41 H26         -0.7370    -4.1350     1.1090 ha         1 XZB       0.149000
     42 H321        -2.8920    -3.8920     1.0040 hn         1 XZB       0.472000
     43 H322        -4.2360    -3.0040     1.6220 hn         1 XZB       0.472000
     44 H36         -4.8300    -1.1720     0.2950 h1         1 XZB       0.021700
     45 H381        -5.5330     0.0360     2.3650 hc         1 XZB       0.070200
     46 H382        -4.6790     1.4770     1.8400 hc         1 XZB       0.070200
     47 H501        -3.1610     1.3300    -0.3420 hc         1 XZB       0.070200
     48 H502        -3.0670    -0.2030    -1.1950 hc         1 XZB       0.070200
     49 H411        -7.0510     0.1640     0.3280 h1         1 XZB       0.101450
     50 H412        -7.1370     1.6660     1.2950 h1         1 XZB       0.101450
     51 H471        -5.4900     0.0150    -1.9170 h1         1 XZB       0.101450
     52 H472        -4.5230     1.4160    -2.4650 h1         1 XZB       0.101450
@<TRIPOS>BOND
     1     1     2 1   
     2     1    33 1   
     3     1    34 1   
     4     1    35 1   
     5     2     3 1   
     6     2    20 1   
     7     3     4 2   
     8     3    36 1   
     9     4     5 1   
    10     4    15 1   
    11     5     6 ar  
    12     5    10 ar  
    13     6     7 ar  
    14     6    37 1   
    15     7     8 ar  
    16     7    39 1   
    17     8     9 ar  
    18     8    40 1   
    19     9    10 ar  
    20     9    11 1   
    21    10    38 1   
    22    11    12 1   
    23    11    13 1   
    24    11    14 1   
    25    15    16 1   
    26    15    19 2   
    27    16    17 1   
    28    17    18 2   
    29    17    22 1   
    30    18    19 1   
    31    18    41 1   
    32    19    20 1   
    33    20    21 2   
    34    22    23 1   
    35    22    24 2   
    36    23    42 1   
    37    23    43 1   
    38    24    25 1   
    39    25    26 1   
    40    25    32 1   
    41    25    44 1   
    42    26    27 1   
    43    26    45 1   
    44    26    46 1   
    45    27    28 1   
    46    27    49 1   
    47    27    50 1   
    48    28    29 2   
    49    28    30 2   
    50    28    31 1   
    51    31    32 1   
    52    31    51 1   
    53    31    52 1   
    54    32    47 1   
    55    32    48 1   
@<TRIPOS>SUBSTRUCTURE
     1 XZB         1 TEMP              0 ****  ****    0 ROOT
