@<TRIPOS>MOLECULE
XZB
   52    55     1     0     0
SMALL
abcg2


@<TRIPOS>ATOM
      1 C01          4.5130    -4.3740     0.2810 c3         1 XZB       0.078300
      2 N05          3.4090    -3.4330     0.1400 n          1 XZB      -0.276000
      3 C06          3.6690    -2.1370    -0.1780 cc         1 XZB      -0.007400
      4 C08          2.7070    -1.1890    -0.3410 cd         1 XZB      -0.104400
      5 C09          3.0570     0.2010    -0.6830 ca         1 XZB      -0.034800
      6 C10          2.4130     0.8650    -1.7300 ca         1 XZB      -0.075000
      7 C12          2.7530     2.1680    -2.0510 ca         1 XZB      -0.111000
      8 C14          3.7460     2.8320    -1.3450 ca         1 XZB      -0.056000
      9 C16          4.3960     2.1750    -0.3100 ca         1 XZB      -0.194300
     10 C17          4.0480     0.8710     0.0250 ca         1 XZB      -0.059000
     11 C19          5.4610     2.8540     0.4940 c3         1 XZB       0.357300
     12 F20          5.7920     4.0520     0.0060 f          1 XZB      -0.113000
     13 F21          5.0760     3.0410     1.7650 f          1 XZB      -0.113000
     14 F22          6.5850     2.1240     0.5420 f          1 XZB      -0.113000
     15 C23          1.3720    -1.6310    -0.1500 cd         1 XZB      -0.111800
     16 S24         -0.0580    -0.6770    -0.2160 ss         1 XZB       0.343000
     17 C25         -1.0410    -2.0540     0.1650 cd         1 XZB      -0.309900
     18 C26         -0.3050    -3.1820     0.3460 cc         1 XZB      -0.037000
     19 C28          1.0850    -2.9480     0.1690 cc         1 XZB      -0.219600
     20 C29          2.1280    -3.9300     0.3260 c          1 XZB       0.586600
     21 O30          1.9430    -5.1080     0.6030 o          1 XZB      -0.546000
     22 C31         -2.4900    -1.8320     0.2610 cf         1 XZB       0.730800
     23 N32         -3.2500    -2.9470     0.4260 nv         1 XZB      -1.066200
     24 N34         -2.8660    -0.6110     0.2220 n2         1 XZB      -0.706900
     25 C36         -4.2590    -0.2520     0.2860 c6         1 XZB       0.141500
     26 C38         -4.3930     0.9500     1.2250 c6         1 XZB      -0.056900
     27 C41         -5.8330     1.4150     1.3940 c6         1 XZB      -0.297900
     28 S44         -6.5280     1.9160    -0.1740 s6         1 XZB       1.075000
     29 O45         -7.9690     2.1290    -0.0300 o          1 XZB      -0.517000
     30 O46         -5.7210     3.0160    -0.7110 o          1 XZB      -0.517000
     31 C47         -6.2300     0.4600    -1.1670 c6         1 XZB      -0.297900
     32 C50         -4.7590     0.0660    -1.1280 c6         1 XZB      -0.056900
     33 H011         4.5040    -4.8270     1.2700 h1         1 XZB       0.056367
     34 H012         4.4440    -5.1610    -0.4670 h1         1 XZB       0.056367
     35 H013         5.4490    -3.8420     0.1480 h1         1 XZB       0.056367
     36 H06          4.7140    -1.8960    -0.3170 h4         1 XZB       0.204000
     37 H10          1.6600     0.3540    -2.3160 ha         1 XZB       0.126000
     38 H17          4.5370     0.3660     0.8500 ha         1 XZB       0.128000
     39 H12          2.2490     2.6700    -2.8660 ha         1 XZB       0.126000
     40 H14          3.9990     3.8480    -1.6110 ha         1 XZB       0.134000
     41 H26         -0.7120    -4.1470     0.6120 ha         1 XZB       0.149000
     42 H321        -2.8800    -3.8360     0.1360 hn         1 XZB       0.472000
     43 H322        -4.2490    -2.8790     0.3270 hn         1 XZB       0.472000
     44 H36         -4.9030    -1.0450     0.6960 h1         1 XZB       0.021700
     45 H381        -4.0160     0.6760     2.2110 hc         1 XZB       0.070200
     46 H382        -3.7700     1.7720     0.8640 hc         1 XZB       0.070200
     47 H501        -4.1440     0.8550    -1.5650 hc         1 XZB       0.070200
     48 H502        -4.6390    -0.8150    -1.7620 hc         1 XZB       0.070200
     49 H411        -6.4740     0.6210     1.7820 h1         1 XZB       0.101450
     50 H412        -5.9120     2.2790     2.0570 h1         1 XZB       0.101450
     51 H471        -6.8750    -0.3280    -0.7750 h1         1 XZB       0.101450
     52 H472        -6.5610     0.7060    -2.1780 h1         1 XZB       0.101450
@<TRIPOS>BOND
     1     1     2 1   
     2     1    33 1   
     3     1    34 1   
     4     1    35 1   
     5     2     3 1   
     6     2    20 1   
     7     3     4 2   
     8     3    36 1   
     9     4     5 1   
    10     4    15 1   
    11     5     6 ar  
    12     5    10 ar  
    13     6     7 ar  
    14     6    37 1   
    15     7     8 ar  
    16     7    39 1   
    17     8     9 ar  
    18     8    40 1   
    19     9    10 ar  
    20     9    11 1   
    21    10    38 1   
    22    11    12 1   
    23    11    13 1   
    24    11    14 1   
    25    15    16 1   
    26    15    19 2   
    27    16    17 1   
    28    17    18 2   
    29    17    22 1   
    30    18    19 1   
    31    18    41 1   
    32    19    20 1   
    33    20    21 2   
    34    22    23 1   
    35    22    24 2   
    36    23    42 1   
    37    23    43 1   
    38    24    25 1   
    39    25    26 1   
    40    25    32 1   
    41    25    44 1   
    42    26    27 1   
    43    26    45 1   
    44    26    46 1   
    45    27    28 1   
    46    27    49 1   
    47    27    50 1   
    48    28    29 2   
    49    28    30 2   
    50    28    31 1   
    51    31    32 1   
    52    31    51 1   
    53    31    52 1   
    54    32    47 1   
    55    32    48 1   
@<TRIPOS>SUBSTRUCTURE
     1 XZB         1 TEMP              0 ****  ****    0 ROOT
