@<TRIPOS>MOLECULE
XZE
   28    30     1     0     0
SMALL
abcg2


@<TRIPOS>ATOM
      1 C10          4.3690    12.7300   -15.5150 ca         1 XZE      -0.121000
      2 C13          4.0330    15.9570   -13.7130 ca         1 XZE      -0.097000
      3 C15          1.8430    16.8340   -14.2280 ca         1 XZE      -0.105000
      4 C17          2.5200    14.7290   -15.1860 ca         1 XZE       0.260000
      5 C03          1.3140    11.4660   -17.5140 ca         1 XZE       0.294500
      6 C04          0.2510    11.5120   -16.6200 ca         1 XZE      -0.106000
      7 C05         -1.0230    11.2550   -17.1030 ca         1 XZE      -0.084000
      8 C06         -1.1860    10.9950   -18.4530 ca         1 XZE      -0.148000
      9 C07         -0.0580    10.9840   -19.2640 ca         1 XZE       0.331900
     10 C09          3.0960    12.7250   -16.1300 ca         1 XZE       0.290500
     11 C11          4.6970    13.7830   -14.7110 ca         1 XZE      -0.071000
     12 C12          3.7700    14.8310   -14.5230 ca         1 XZE      -0.065000
     13 C14          3.0880    16.9360   -13.5690 ca         1 XZE      -0.096000
     14 C16          1.5620    15.7560   -15.0210 ca         1 XZE      -0.075000
     15 N08          1.1670    11.1960   -18.8080 nb         1 XZE      -0.633000
     16 N18          2.2130    13.6780   -15.9740 nb         1 XZE      -0.636000
     17 O01          3.5830    10.8580   -17.4770 o          1 XZE      -0.478100
     18 H1           5.0610    11.9160   -15.6790 ha         1 XZE       0.145000
     19 H2           4.9890    16.0320   -13.2080 ha         1 XZE       0.119000
     20 H3           1.1090    17.6190   -14.1000 ha         1 XZE       0.119000
     21 H4           0.4130    11.7270   -15.5740 ha         1 XZE       0.132000
     22 H5          -1.8740    11.2650   -16.4340 ha         1 XZE       0.121000
     23 H6          -2.1620    10.8000   -18.8760 ha         1 XZE       0.124000
     24 H7          -0.1510    10.7900   -20.3270 h4         1 XZE       0.023100
     25 H8           5.6590    13.8250   -14.2160 ha         1 XZE       0.124000
     26 H9           3.2920    17.7970   -12.9460 ha         1 XZE       0.117000
     27 H10          0.6130    15.6660   -15.5320 ha         1 XZE       0.133000
     28 C02          2.7360    11.6160   -17.0640 c          1 XZE       0.385100
@<TRIPOS>BOND
     1     1    10 ar  
     2     1    11 ar  
     3     1    18 1   
     4     2    12 ar  
     5     2    13 ar  
     6     2    19 1   
     7     3    13 ar  
     8     3    14 ar  
     9     3    20 1   
    10     4    12 ar  
    11     4    14 ar  
    12     4    16 ar  
    13     5     6 ar  
    14     5    15 ar  
    15     5    28 1   
    16     6     7 ar  
    17     6    21 1   
    18     7     8 ar  
    19     7    22 1   
    20     8     9 ar  
    21     8    23 1   
    22     9    15 ar  
    23     9    24 1   
    24    10    16 ar  
    25    10    28 1   
    26    11    12 ar  
    27    11    25 1   
    28    13    26 1   
    29    14    27 1   
    30    17    28 2   
@<TRIPOS>SUBSTRUCTURE
     1 XZE         1 TEMP              0 ****  ****    0 ROOT
