@<TRIPOS>MOLECULE
XZE
   28    30     1     0     0
SMALL
No Charge or Current Charge


@<TRIPOS>ATOM
      1 C10          4.3480    12.7450   -15.5220 ca         1 XZE      -0.121000
      2 C13          3.9990    15.8960   -13.5980 ca         1 XZE      -0.097000
      3 C15          1.8800    16.9250   -14.1940 ca         1 XZE      -0.105000
      4 C17          2.5290    14.8050   -15.2340 ca         1 XZE       0.260000
      5 C03          1.3660    11.4130   -17.6290 ca         1 XZE       0.294500
      6 C04          0.3170    11.5400   -16.6860 ca         1 XZE      -0.106000
      7 C05         -1.0100    11.2950   -17.0770 ca         1 XZE      -0.084000
      8 C06         -1.2510    10.9140   -18.4060 ca         1 XZE      -0.148000
      9 C07         -0.1650    10.7860   -19.2860 ca         1 XZE       0.331900
     10 C09          3.1300    12.7660   -16.2350 ca         1 XZE       0.290500
     11 C11          4.6540    13.7860   -14.6310 ca         1 XZE      -0.071000
     12 C12          3.7300    14.8330   -14.4820 ca         1 XZE      -0.065000
     13 C14          3.0730    16.9420   -13.4550 ca         1 XZE      -0.096000
     14 C16          1.6140    15.8630   -15.0770 ca         1 XZE      -0.075000
     15 N08          1.1150    11.0200   -18.9140 nb         1 XZE      -0.633000
     16 N18          2.2470    13.7950   -16.0900 nb         1 XZE      -0.636000
     17 O01          3.7240    10.9400   -17.6770 o          1 XZE      -0.478100
     18 H1           5.0490    11.9250   -15.6560 ha         1 XZE       0.145000
     19 H2           4.9230    15.9130   -13.0240 ha         1 XZE       0.119000
     20 H3           1.1610    17.7350   -14.0850 ha         1 XZE       0.119000
     21 H4           0.5280    11.8130   -15.6560 ha         1 XZE       0.132000
     22 H5          -1.8280    11.3910   -16.3660 ha         1 XZE       0.121000
     23 H6          -2.2610    10.7130   -18.7530 ha         1 XZE       0.124000
     24 H7          -0.3230    10.4830   -20.3200 h4         1 XZE       0.023100
     25 H8           5.5870    13.7770   -14.0730 ha         1 XZE       0.124000
     26 H9           3.2800    17.7630   -12.7720 ha         1 XZE       0.117000
     27 H10          0.6880    15.8570   -15.6460 ha         1 XZE       0.133000
     28 C02          2.8190    11.6430   -17.2200 c          1 XZE       0.385100
@<TRIPOS>BOND
     1     1    10 ar  
     2     1    11 ar  
     3     1    18 1   
     4     2    12 ar  
     5     2    13 ar  
     6     2    19 1   
     7     3    13 ar  
     8     3    14 ar  
     9     3    20 1   
    10     4    12 ar  
    11     4    14 ar  
    12     4    16 ar  
    13     5     6 ar  
    14     5    15 ar  
    15     5    28 1   
    16     6     7 ar  
    17     6    21 1   
    18     7     8 ar  
    19     7    22 1   
    20     8     9 ar  
    21     8    23 1   
    22     9    15 ar  
    23     9    24 1   
    24    10    16 ar  
    25    10    28 1   
    26    11    12 ar  
    27    11    25 1   
    28    13    26 1   
    29    14    27 1   
    30    17    28 2   
@<TRIPOS>SUBSTRUCTURE
     1 XZE         1 TEMP              0 ****  ****    0 ROOT
