@<TRIPOS>MOLECULE
XZG
   76    81     1     0     0
SMALL
abcg2


@<TRIPOS>ATOM
      1 C13        -20.3590     6.3260    -1.4950 c6         1 XZG      -0.070400
      2 C17        -21.5430     2.9000     1.0900 ca         1 XZG      -0.039300
      3 C20        -23.8890     2.6830     2.5460 ca         1 XZG      -0.171200
      4 C24        -22.7150     3.0230     3.2050 ca         1 XZG      -0.047500
      5 C26        -19.2960     3.8320    -1.7780 c6         1 XZG       0.169300
      6 C28        -18.3050     7.3160    -4.8230 c5         1 XZG       0.138200
      7 C01        -13.0270     8.4150    -5.6370 c3         1 XZG      -0.117100
      8 C04        -15.7740    10.0950    -5.1130 cc         1 XZG       0.339600
      9 C06        -17.5380     8.5890    -4.6740 c2         1 XZG       0.092800
     10 C07        -18.2100     9.4790    -3.9340 ce         1 XZG      -0.214400
     11 C08        -19.5030     8.8840    -3.5650 c          1 XZG       0.580200
     12 C11        -20.6640     6.7240    -3.9970 c3         1 XZG       0.123000
     13 C12        -20.6490     5.6980    -2.8570 c6         1 XZG      -0.072700
     14 C14        -20.5740     5.3120    -0.3620 c6         1 XZG       0.169300
     15 C18        -22.7410     2.5590     0.4560 ca         1 XZG      -0.110000
     16 C19        -23.9180     2.4480     1.1740 ca         1 XZG      -0.047500
     17 C25        -21.5460     3.1310     2.4660 ca         1 XZG      -0.110000
     18 C27        -19.6760     4.5280    -3.0930 c6         1 XZG      -0.070400
     19 C29        -17.6340    10.7940    -3.5120 c6         1 XZG       0.155000
     20 C30        -17.3010    10.7770    -2.0220 ca         1 XZG      -0.082300
     21 C31        -16.3160     9.9190    -1.5310 ca         1 XZG      -0.085500
     22 C32        -16.0270     9.8710    -0.1740 ca         1 XZG      -0.114500
     23 C33        -16.7110    10.6780     0.7380 ca         1 XZG      -0.075300
     24 C34        -16.3730    10.6460     2.2050 c3         1 XZG      -0.045800
     25 C35        -17.6990    11.5290     0.2420 ca         1 XZG      -0.114500
     26 C36        -17.9890    11.5780    -1.1180 ca         1 XZG      -0.085500
     27 C37        -16.4060    11.0640    -4.3690 cd         1 XZG      -0.333400
     28 C38        -15.8600    12.3860    -4.3560 c          1 XZG       0.602200
     29 C41        -14.0100    11.5930    -5.7920 c          1 XZG       0.624000
     30 N03        -14.6060    10.3390    -5.8110 n          1 XZG      -0.338000
     31 N05        -16.2980     8.8300    -5.2100 nu         1 XZG      -0.685000
     32 N10        -19.5110     7.6050    -4.0600 n          1 XZG      -0.431800
     33 N15        -20.3980     3.9290    -0.8260 n3         1 XZG      -0.732600
     34 N21        -25.1270     2.5690     3.3120 no         1 XZG       0.673200
     35 N40        -14.6850    12.5500    -5.0880 ns         1 XZG      -0.462500
     36 O22        -25.0850     2.7670     4.5220 o          1 XZG      -0.397500
     37 O23        -26.1580     2.2780     2.7150 o          1 XZG      -0.397500
     38 O39        -16.3390    13.3540    -3.7630 o          1 XZG      -0.529000
     39 O42        -12.9600    11.8340    -6.3710 o          1 XZG      -0.560000
     40 H1         -19.3270     6.6840    -1.4870 hc         1 XZG       0.047200
     41 H2         -20.9920     7.1980    -1.3290 hc         1 XZG       0.047200
     42 H3         -22.7210     3.2040     4.2690 ha         1 XZG       0.152000
     43 H4         -19.0850     2.7770    -1.9560 h1         1 XZG       0.034700
     44 H5         -18.3750     4.2740    -1.3610 h1         1 XZG       0.034700
     45 H6         -18.5400     7.0900    -5.8670 h1         1 XZG       0.063200
     46 H7         -17.7470     6.4720    -4.4110 h1         1 XZG       0.063200
     47 H8         -12.5200     7.6550    -6.2350 hc         1 XZG       0.052033
     48 H9         -12.2720     9.0260    -5.1420 hc         1 XZG       0.052033
     49 H10        -13.6170     7.9090    -4.8720 hc         1 XZG       0.052033
     50 H11        -13.2770     9.7870    -7.2800 h1         1 XZG       0.068700
     51 H12        -14.6190     8.6900    -7.1050 h1         1 XZG       0.068700
     52 H13        -21.5380     7.3660    -3.8830 h1         1 XZG       0.058200
     53 H14        -20.7530     6.2080    -4.9570 h1         1 XZG       0.058200
     54 H15        -21.6620     5.2860    -2.8250 hc         1 XZG       0.066700
     55 H16        -19.8750     5.5300     0.4630 h1         1 XZG       0.034700
     56 H17        -21.5840     5.4070     0.0430 h1         1 XZG       0.034700
     57 H18        -20.0320     2.0180    -0.1180 h1         1 XZG       0.043700
     58 H19        -19.4420     3.2870     0.9620 h1         1 XZG       0.043700
     59 H20        -22.7450     2.3880    -0.6120 ha         1 XZG       0.132500
     60 H21        -24.8460     2.1820     0.6890 ha         1 XZG       0.152000
     61 H22        -20.6250     3.4050     2.9630 ha         1 XZG       0.132500
     62 H23        -20.1370     3.8120    -3.7770 hc         1 XZG       0.047200
     63 H24        -18.7610     4.8800    -3.5730 hc         1 XZG       0.047200
     64 H25        -15.7710     9.2780    -2.2140 ha         1 XZG       0.112000
     65 H26        -15.2590     9.1940     0.1850 ha         1 XZG       0.108000
     66 H27        -15.5060    11.2770     2.4180 hc         1 XZG       0.040700
     67 H28        -17.2040    11.0110     2.8100 hc         1 XZG       0.040700
     68 H29        -16.1250     9.6340     2.5310 hc         1 XZG       0.040700
     69 H30        -18.2490    12.1620     0.9290 ha         1 XZG       0.108000
     70 H31        -18.7610    12.2480    -1.4800 ha         1 XZG       0.112000
     71 H33        -14.2650    13.4700    -5.0800 hn         1 XZG       0.349500
     72 H34        -18.3590    11.5960    -3.6730 hc         1 XZG       0.091700
     73 H35        -15.8650     8.1310    -5.7880 hn         1 XZG       0.512000
     74 C16        -20.2690     3.0050     0.2890 c3         1 XZG       0.210100
     75 O09        -20.4250     9.4190    -2.9460 o          1 XZG      -0.534000
     76 C02        -13.8920     9.2780    -6.5460 c3         1 XZG       0.094000
@<TRIPOS>BOND
     1     1    13 1   
     2     1    14 1   
     3     1    40 1   
     4     1    41 1   
     5     2    15 ar  
     6     2    17 ar  
     7     2    74 1   
     8     3     4 ar  
     9     3    16 ar  
    10     3    34 1   
    11     4    17 ar  
    12     4    42 1   
    13     5    18 1   
    14     5    33 1   
    15     5    43 1   
    16     5    44 1   
    17     6     9 1   
    18     6    32 1   
    19     6    45 1   
    20     6    46 1   
    21     7    47 1   
    22     7    48 1   
    23     7    49 1   
    24     7    76 1   
    25     8    27 2   
    26     8    30 1   
    27     8    31 1   
    28     9    10 2   
    29     9    31 1   
    30    10    11 1   
    31    10    19 1   
    32    11    32 1   
    33    11    75 2   
    34    12    13 1   
    35    12    32 1   
    36    12    52 1   
    37    12    53 1   
    38    13    18 1   
    39    13    54 1   
    40    14    33 1   
    41    14    55 1   
    42    14    56 1   
    43    15    16 ar  
    44    15    59 1   
    45    16    60 1   
    46    17    61 1   
    47    18    62 1   
    48    18    63 1   
    49    19    20 1   
    50    19    27 1   
    51    19    72 1   
    52    20    21 ar  
    53    20    26 ar  
    54    21    22 ar  
    55    21    64 1   
    56    22    23 ar  
    57    22    65 1   
    58    23    24 1   
    59    23    25 ar  
    60    24    66 1   
    61    24    67 1   
    62    24    68 1   
    63    25    26 ar  
    64    25    69 1   
    65    26    70 1   
    66    27    28 1   
    67    28    35 1   
    68    28    38 2   
    69    29    30 1   
    70    29    35 1   
    71    29    39 2   
    72    30    76 1   
    73    31    73 1   
    74    33    74 1   
    75    34    36 1   
    76    34    37 1   
    77    35    71 1   
    78    50    76 1   
    79    51    76 1   
    80    57    74 1   
    81    58    74 1   
@<TRIPOS>SUBSTRUCTURE
     1 XZG         1 TEMP              0 ****  ****    0 ROOT
