@<TRIPOS>MOLECULE
XZG
   76    81     1     0     0
SMALL
No Charge or Current Charge


@<TRIPOS>ATOM
      1 C13        -20.5570     6.1500    -1.6000 c6         1 XZG      -0.070400
      2 C17        -21.6370     2.8110     1.0770 ca         1 XZG      -0.039300
      3 C20        -23.7570     3.0980     2.9390 ca         1 XZG      -0.171200
      4 C24        -22.4120     3.2500     3.3520 ca         1 XZG      -0.047500
      5 C26        -19.5300     3.3920    -2.0830 c6         1 XZG       0.169300
      6 C28        -18.2010     7.2350    -5.0400 c5         1 XZG       0.138200
      7 C01        -12.8280     8.5760    -5.7780 c3         1 XZG      -0.117100
      8 C04        -15.6510    10.1660    -5.0890 cc         1 XZG       0.339600
      9 C06        -17.4230     8.5290    -4.7830 c2         1 XZG       0.092800
     10 C07        -18.1240     9.3530    -4.0110 ce         1 XZG      -0.214400
     11 C08        -19.4130     8.7660    -3.6510 c          1 XZG       0.580200
     12 C11        -20.6170     6.6160    -4.1590 c3         1 XZG       0.123000
     13 C12        -20.5980     5.5400    -3.0310 c6         1 XZG      -0.072700
     14 C14        -20.3620     5.0800    -0.4870 c6         1 XZG       0.169300
     15 C18        -22.9730     2.6600     0.6640 ca         1 XZG      -0.110000
     16 C19        -24.0270     2.8010     1.5830 ca         1 XZG      -0.047500
     17 C25        -21.3640     3.1070     2.4260 ca         1 XZG      -0.110000
     18 C27        -19.4560     4.5010    -3.1730 c6         1 XZG      -0.070400
     19 C29        -17.6170    10.7210    -3.5600 c6         1 XZG       0.155000
     20 C30        -17.4030    10.7040    -2.0410 ca         1 XZG      -0.082300
     21 C31        -16.4420     9.8440    -1.4720 ca         1 XZG      -0.085500
     22 C32        -16.2480     9.8150    -0.0810 ca         1 XZG      -0.114500
     23 C33        -17.0140    10.6430     0.7600 ca         1 XZG      -0.075300
     24 C34        -16.8020    10.6130     2.2660 c3         1 XZG      -0.045800
     25 C35        -17.9730    11.5030     0.1940 ca         1 XZG      -0.114500
     26 C36        -18.1680    11.5330    -1.1980 ca         1 XZG      -0.085500
     27 C37        -16.3200    11.0750    -4.2980 cd         1 XZG      -0.333400
     28 C38        -15.7960    12.4360    -4.1300 c          1 XZG       0.602200
     29 C41        -13.9210    11.7980    -5.5580 c          1 XZG       0.624000
     30 N03        -14.4570    10.5060    -5.7210 n          1 XZG      -0.338000
     31 N05        -16.1830     8.9100    -5.2620 nu         1 XZG      -0.685000
     32 N10        -19.4330     7.4970    -4.2360 n          1 XZG      -0.431800
     33 N15        -20.5120     3.6880    -0.9990 n3         1 XZG      -0.732600
     34 N21        -24.8780     3.2500     3.9230 no         1 XZG       0.673200
     35 N40        -14.6320    12.6550    -4.7850 ns         1 XZG      -0.462500
     36 O22        -24.5930     3.5110     5.1000 o          1 XZG      -0.397500
     37 O23        -26.0380     3.1080     3.5160 o          1 XZG      -0.397500
     38 O39        -16.3310    13.3160    -3.4770 o          1 XZG      -0.529000
     39 O42        -12.8750    12.1650    -6.0680 o          1 XZG      -0.560000
     40 H1         -19.7440     6.8830    -1.5190 hc         1 XZG       0.047200
     41 H2         -21.4880     6.7040    -1.4150 hc         1 XZG       0.047200
     42 H3         -22.1700     3.4800     4.3890 ha         1 XZG       0.152000
     43 H4         -19.8020     2.4430    -2.5690 h1         1 XZG       0.034700
     44 H5         -18.5240     3.2500    -1.6600 h1         1 XZG       0.034700
     45 H6         -18.4360     7.1010    -6.1040 h1         1 XZG       0.063200
     46 H7         -17.6550     6.3530    -4.6830 h1         1 XZG       0.063200
     47 H8         -12.3040     7.8870    -6.4520 hc         1 XZG       0.052033
     48 H9         -12.0760     9.1300    -5.2030 hc         1 XZG       0.052033
     49 H10        -13.4270     7.9830    -5.0770 hc         1 XZG       0.052033
     50 H11        -13.0750    10.0920    -7.2940 h1         1 XZG       0.068700
     51 H12        -14.4180     8.9780    -7.2010 h1         1 XZG       0.068700
     52 H13        -21.5150     7.2340    -4.0330 h1         1 XZG       0.058200
     53 H14        -20.7210     6.1000    -5.1220 h1         1 XZG       0.058200
     54 H15        -21.5510     5.0030    -3.1400 hc         1 XZG       0.066700
     55 H16        -19.3600     5.2050    -0.0480 h1         1 XZG       0.034700
     56 H17        -21.0840     5.2830     0.3170 h1         1 XZG       0.034700
     57 H18        -20.5870     1.6600    -0.3810 h1         1 XZG       0.043700
     58 H19        -19.5390     2.6820     0.6010 h1         1 XZG       0.043700
     59 H20        -23.1930     2.4370    -0.3780 ha         1 XZG       0.132500
     60 H21        -25.0510     2.6800     1.2310 ha         1 XZG       0.152000
     61 H22        -20.3360     3.2300     2.7590 ha         1 XZG       0.132500
     62 H23        -19.4750     4.0420    -4.1710 hc         1 XZG       0.047200
     63 H24        -18.4870     5.0070    -3.0820 hc         1 XZG       0.047200
     64 H25        -15.8460     9.1960    -2.1110 ha         1 XZG       0.112000
     65 H26        -15.5010     9.1480     0.3430 ha         1 XZG       0.108000
     66 H27        -16.0360    11.3380     2.5670 hc         1 XZG       0.040700
     67 H28        -17.7260    10.8590     2.8050 hc         1 XZG       0.040700
     68 H29        -16.4780     9.6220     2.6050 hc         1 XZG       0.040700
     69 H30        -18.5700    12.1510     0.8330 ha         1 XZG       0.108000
     70 H31        -18.9160    12.2010    -1.6180 ha         1 XZG       0.112000
     71 H33        -14.2410    13.5780    -4.6850 hn         1 XZG       0.349500
     72 H34        -18.3890    11.4630    -3.8120 hc         1 XZG       0.091700
     73 H35        -15.6600     8.2620    -5.8480 hn         1 XZG       0.512000
     74 C16        -20.5000     2.6590     0.0690 c3         1 XZG       0.210100
     75 O09        -20.3030     9.2760    -2.9860 o          1 XZG      -0.534000
     76 C02        -13.7110     9.5470    -6.5850 c3         1 XZG       0.094000
@<TRIPOS>BOND
     1     1    13 1   
     2     1    14 1   
     3     1    40 1   
     4     1    41 1   
     5     2    15 ar  
     6     2    17 ar  
     7     2    74 1   
     8     3     4 ar  
     9     3    16 ar  
    10     3    34 1   
    11     4    17 ar  
    12     4    42 1   
    13     5    18 1   
    14     5    33 1   
    15     5    43 1   
    16     5    44 1   
    17     6     9 1   
    18     6    32 1   
    19     6    45 1   
    20     6    46 1   
    21     7    47 1   
    22     7    48 1   
    23     7    49 1   
    24     7    76 1   
    25     8    27 2   
    26     8    30 1   
    27     8    31 1   
    28     9    10 2   
    29     9    31 1   
    30    10    11 1   
    31    10    19 1   
    32    11    32 1   
    33    11    75 2   
    34    12    13 1   
    35    12    32 1   
    36    12    52 1   
    37    12    53 1   
    38    13    18 1   
    39    13    54 1   
    40    14    33 1   
    41    14    55 1   
    42    14    56 1   
    43    15    16 ar  
    44    15    59 1   
    45    16    60 1   
    46    17    61 1   
    47    18    62 1   
    48    18    63 1   
    49    19    20 1   
    50    19    27 1   
    51    19    72 1   
    52    20    21 ar  
    53    20    26 ar  
    54    21    22 ar  
    55    21    64 1   
    56    22    23 ar  
    57    22    65 1   
    58    23    24 1   
    59    23    25 ar  
    60    24    66 1   
    61    24    67 1   
    62    24    68 1   
    63    25    26 ar  
    64    25    69 1   
    65    26    70 1   
    66    27    28 1   
    67    28    35 1   
    68    28    38 2   
    69    29    30 1   
    70    29    35 1   
    71    29    39 2   
    72    30    76 1   
    73    31    73 1   
    74    33    74 1   
    75    34    36 1   
    76    34    37 1   
    77    35    71 1   
    78    50    76 1   
    79    51    76 1   
    80    57    74 1   
    81    58    74 1   
@<TRIPOS>SUBSTRUCTURE
     1 XZG         1 TEMP              0 ****  ****    0 ROOT
