@<TRIPOS>MOLECULE
XZH
   65    68     1     0     0
SMALL
abcg2


@<TRIPOS>ATOM
      1 C02        -21.7500    -8.8560    10.0560 c          1 XZH       0.725200
      2 C04        -22.0040   -10.2790    10.5020 cc         1 XZH      -0.052300
      3 C05        -21.9540   -11.4880     9.8430 cd         1 XZH      -0.155400
      4 C06        -21.4870   -11.7820     8.4860 ca         1 XZH       0.101200
      5 C07        -20.2300   -11.3690     8.0400 ca         1 XZH      -0.085000
      6 C08        -19.7790   -11.7160     6.7810 ca         1 XZH      -0.092000
      7 C09        -20.5570   -12.4780     5.9090 ca         1 XZH      -0.165300
      8 C10        -20.0660   -12.8320     4.5470 c3         1 XZH      -0.199100
      9 C13        -19.7930   -10.1370     3.7010 c3         1 XZH      -0.331100
     10 C15        -21.8000   -12.8780     6.3720 ca         1 XZH       0.192000
     11 C17        -22.2700   -12.5540     7.6290 ca         1 XZH      -0.158000
     12 C18        -22.3980   -12.4820    10.7770 ca         1 XZH      -0.083800
     13 C19        -22.5570   -13.8690    10.7070 ca         1 XZH      -0.059000
     14 C20        -23.0120   -14.5420    11.8230 ca         1 XZH      -0.156000
     15 C21        -23.2990   -13.8600    13.0130 ca         1 XZH      -0.080000
     16 C22        -23.1370   -12.4900    13.1270 ca         1 XZH      -0.140300
     17 C23        -23.4460   -11.7630    14.4170 c3         1 XZH       0.153600
     18 C27        -26.9190   -12.2470    15.1380 cc         1 XZH       0.169300
     19 C28        -28.2000   -12.7690    15.6900 c3         1 XZH       0.183500
     20 C31        -29.7480   -15.5390    14.5250 c3         1 XZH      -0.356400
     21 C32        -30.7370   -16.0070    15.5800 c3         1 XZH       0.174800
     22 C36        -25.6240   -12.5840    15.4380 cd         1 XZH      -0.172000
     23 C37        -22.6840   -12.3160    15.6100 c3         1 XZH      -0.104100
     24 C38        -22.6920   -11.8120    11.9870 ca         1 XZH      -0.035200
     25 F16        -22.5770   -13.6320     5.5780 f          1 XZH      -0.186000
     26 N24        -24.8900   -11.7780    14.6510 na         1 XZH       0.137800
     27 N25        -25.6630   -11.0010    13.9170 nd         1 XZH      -0.177800
     28 N26        -26.8900   -11.2760    14.2060 nc         1 XZH      -0.370000
     29 N29        -28.0720   -14.1230    16.2210 n7         1 XZH      -0.823300
     30 N33        -30.7900   -15.0930    16.7120 n8         1 XZH      -1.035200
     31 N39        -22.4420   -10.4920    11.7780 na         1 XZH      -0.194700
     32 O01        -21.8310    -8.0040    10.9620 o          1 XZH      -0.698500
     33 O03        -21.5070    -8.6790     8.8520 o          1 XZH      -0.698500
     34 O12        -22.0610   -11.4480     3.4450 o          1 XZH      -0.529000
     35 O14        -20.1240   -12.1280     2.0000 o          1 XZH      -0.529000
     36 O34        -27.7710   -16.5800    15.9270 o          1 XZH      -0.525000
     37 O35        -27.2050   -15.0280    14.0340 o          1 XZH      -0.525000
     38 S11        -20.6240   -11.6570     3.2910 s6         1 XZH       1.064000
     39 S30        -28.0690   -15.3870    15.1480 s6         1 XZH       1.160100
     40 H071       -19.5930   -10.7910     8.6950 ha         1 XZH       0.135000
     41 H081       -18.7920   -11.4010     6.4620 ha         1 XZH       0.097000
     42 H101       -20.4260   -13.8000     4.1920 h1         1 XZH       0.095700
     43 H102       -18.9760   -12.8370     4.4980 h1         1 XZH       0.095700
     44 H132       -20.1240    -9.7820     4.6740 h1         1 XZH       0.104033
     45 H131       -18.7170   -10.2950     3.6970 h1         1 XZH       0.104033
     46 H133       -20.0660    -9.4140     2.9330 h1         1 XZH       0.104033
     47 H171       -23.2530   -12.8920     7.9320 ha         1 XZH       0.136000
     48 H191       -22.3280   -14.4090     9.7970 ha         1 XZH       0.109000
     49 H201       -23.1490   -15.6150    11.7850 ha         1 XZH       0.100000
     50 H211       -23.6540   -14.4300    13.8640 ha         1 XZH       0.100000
     51 H231       -23.1870   -10.7080    14.3180 h1         1 XZH       0.081700
     52 H282       -28.5180   -12.1550    16.5340 h1         1 XZH       0.051700
     53 H281       -28.9870   -12.6650    14.9340 h1         1 XZH       0.051700
     54 H312       -30.0280   -14.5720    14.1000 h1         1 XZH       0.102200
     55 H311       -29.6930   -16.2550    13.7030 h1         1 XZH       0.102200
     56 H322       -31.7010   -16.1390    15.0760 h1         1 XZH       0.048700
     57 H321       -30.4380   -16.9910    15.9410 h1         1 XZH       0.048700
     58 H361       -25.2030   -13.3110    16.1100 h4         1 XZH       0.168000
     59 H371       -22.9410   -11.7770    16.5220 hc         1 XZH       0.047367
     60 H372       -22.8690   -13.3770    15.7690 hc         1 XZH       0.047367
     61 H373       -21.6180   -12.1890    15.4310 hc         1 XZH       0.047367
     62 H291       -28.8130   -14.3210    16.9010 hn         1 XZH       0.491000
     63 H331       -31.2960   -14.2540    16.4550 hn         1 XZH       0.407500
     64 H332       -31.3110   -15.5170    17.4680 hn         1 XZH       0.407500
     65 H391       -22.5730    -9.7270    12.4210 hn         1 XZH       0.372000
@<TRIPOS>BOND
     1     1     2 1   
     2     1    32 1   
     3     1    33 1   
     4     2     3 2   
     5     2    31 1   
     6     3     4 1   
     7     3    12 1   
     8     4     5 ar  
     9     4    11 ar  
    10     5     6 ar  
    11     5    40 1   
    12     6     7 ar  
    13     6    41 1   
    14     7     8 1   
    15     7    10 ar  
    16     8    38 1   
    17     8    42 1   
    18     8    43 1   
    19     9    38 1   
    20     9    44 1   
    21     9    45 1   
    22     9    46 1   
    23    10    11 ar  
    24    10    25 1   
    25    11    47 1   
    26    12    13 ar  
    27    12    24 ar  
    28    13    14 ar  
    29    13    48 1   
    30    14    15 ar  
    31    14    49 1   
    32    15    16 ar  
    33    15    50 1   
    34    16    17 1   
    35    16    24 ar  
    36    17    23 1   
    37    17    26 1   
    38    17    51 1   
    39    18    19 1   
    40    18    22 2   
    41    18    28 1   
    42    19    29 1   
    43    19    52 1   
    44    19    53 1   
    45    20    21 1   
    46    20    39 1   
    47    20    54 1   
    48    20    55 1   
    49    21    30 1   
    50    21    56 1   
    51    21    57 1   
    52    22    26 1   
    53    22    58 1   
    54    23    59 1   
    55    23    60 1   
    56    23    61 1   
    57    24    31 1   
    58    26    27 1   
    59    27    28 2   
    60    29    39 1   
    61    29    62 1   
    62    30    63 1   
    63    30    64 1   
    64    31    65 1   
    65    34    38 2   
    66    35    38 2   
    67    36    39 2   
    68    37    39 2   
@<TRIPOS>SUBSTRUCTURE
     1 XZH         1 TEMP              0 ****  ****    0 ROOT
