@<TRIPOS>MOLECULE
XZH
   65    68     1     0     0
SMALL
No Charge or Current Charge


@<TRIPOS>ATOM
      1 C02        -20.7700    -8.9880    10.0780 c          1 XZH       0.725200
      2 C04        -21.6660   -10.1510    10.3860 cc         1 XZH      -0.052300
      3 C05        -22.0570   -11.2110     9.5490 cd         1 XZH      -0.155400
      4 C06        -21.4510   -11.6270     8.2640 ca         1 XZH       0.101200
      5 C07        -20.0580   -11.5660     8.0560 ca         1 XZH      -0.085000
      6 C08        -19.4880   -11.9910     6.8440 ca         1 XZH      -0.092000
      7 C09        -20.3030   -12.4850     5.8100 ca         1 XZH      -0.165300
      8 C10        -19.6680   -12.9410     4.4900 c3         1 XZH      -0.199100
      9 C13        -18.6440   -10.3310     3.9150 c3         1 XZH      -0.331100
     10 C15        -21.6960   -12.5570     6.0180 ca         1 XZH       0.192000
     11 C17        -22.2610   -12.1370     7.2300 ca         1 XZH      -0.158000
     12 C18        -22.9810   -12.0770    10.2670 ca         1 XZH      -0.083800
     13 C19        -23.5970   -13.2920     9.9240 ca         1 XZH      -0.059000
     14 C20        -24.4320   -13.9020    10.8800 ca         1 XZH      -0.156000
     15 C21        -24.6270   -13.3090    12.1480 ca         1 XZH      -0.080000
     16 C22        -23.9820   -12.0930    12.4860 ca         1 XZH      -0.140300
     17 C23        -24.1520   -11.4430    13.8670 c3         1 XZH       0.153600
     18 C27        -27.2140   -12.3890    15.5270 cc         1 XZH       0.169300
     19 C28        -28.2050   -13.1590    16.3800 c3         1 XZH       0.183500
     20 C31        -30.0510   -15.8260    15.4030 c3         1 XZH      -0.356400
     21 C32        -30.4150   -16.5300    16.7100 c3         1 XZH       0.174800
     22 C36        -25.8990   -12.6650    15.3100 cd         1 XZH      -0.172000
     23 C37        -23.0040   -11.8640    14.8130 c3         1 XZH      -0.104100
     24 C38        -23.1530   -11.5150    11.5040 ca         1 XZH      -0.035200
     25 F16        -22.5060   -13.0370     5.0480 f          1 XZH      -0.186000
     26 N24        -25.4900   -11.6560    14.4650 na         1 XZH       0.137800
     27 N25        -26.5350   -10.8010    14.2090 nd         1 XZH      -0.177800
     28 N26        -27.5780   -11.2510    14.8610 nc         1 XZH      -0.370000
     29 N29        -27.9050   -14.6070    16.4680 n7         1 XZH      -0.823300
     30 N33        -30.2230   -15.6070    17.8340 n8         1 XZH      -1.035200
     31 N39        -22.3780   -10.3710    11.5850 na         1 XZH      -0.194700
     32 O01        -20.5460    -8.2010    10.9880 o          1 XZH      -0.698500
     33 O03        -20.3480    -8.8060     8.9450 o          1 XZH      -0.698500
     34 O12        -20.9390   -11.1810     2.9270 o          1 XZH      -0.529000
     35 O14        -18.7900   -12.2210     2.0800 o          1 XZH      -0.529000
     36 O34        -27.5800   -16.8640    15.4160 o          1 XZH      -0.525000
     37 O35        -28.0530   -14.8410    13.9570 o          1 XZH      -0.525000
     38 S11        -19.5820   -11.6760     3.1910 s6         1 XZH       1.064000
     39 S30        -28.2860   -15.6020    15.1870 s6         1 XZH       1.160100
     40 H071       -19.4060   -11.2140     8.8510 ha         1 XZH       0.135000
     41 H081       -18.4090   -11.9380     6.7140 ha         1 XZH       0.097000
     42 H101       -20.2300   -13.7760     4.0580 h1         1 XZH       0.095700
     43 H102       -18.6360   -13.2710     4.6560 h1         1 XZH       0.095700
     44 H132       -19.2070    -9.9570     4.7770 h1         1 XZH       0.104033
     45 H131       -17.6700   -10.7280     4.2200 h1         1 XZH       0.104033
     46 H133       -18.5340    -9.5560     3.1500 h1         1 XZH       0.104033
     47 H171       -23.3380   -12.1770     7.3520 ha         1 XZH       0.136000
     48 H191       -23.4320   -13.7700     8.9630 ha         1 XZH       0.109000
     49 H201       -24.9230   -14.8430    10.6440 ha         1 XZH       0.100000
     50 H211       -25.2700   -13.8130    12.8640 ha         1 XZH       0.100000
     51 H231       -24.0630   -10.3570    13.7320 h1         1 XZH       0.081700
     52 H282       -28.1740   -12.7210    17.3870 h1         1 XZH       0.051700
     53 H281       -29.2190   -12.9920    15.9930 h1         1 XZH       0.051700
     54 H312       -30.5250   -14.8430    15.3220 h1         1 XZH       0.102200
     55 H311       -30.3640   -16.4430    14.5540 h1         1 XZH       0.102200
     56 H322       -31.4690   -16.8450    16.6850 h1         1 XZH       0.048700
     57 H321       -29.7920   -17.4250    16.8530 h1         1 XZH       0.048700
     58 H361       -25.2680   -13.4690    15.6640 h4         1 XZH       0.168000
     59 H371       -23.1080   -11.3750    15.7890 hc         1 XZH       0.047367
     60 H372       -23.0000   -12.9490    14.9650 hc         1 XZH       0.047367
     61 H373       -22.0330   -11.5780    14.3910 hc         1 XZH       0.047367
     62 H291       -28.6080   -14.9940    17.1190 hn         1 XZH       0.491000
     63 H331       -30.9730   -14.9030    17.8090 hn         1 XZH       0.407500
     64 H332       -30.4280   -16.1110    18.7090 hn         1 XZH       0.407500
     65 H391       -22.3210    -9.7580    12.3910 hn         1 XZH       0.372000
@<TRIPOS>BOND
     1     1     2 1   
     2     1    32 1   
     3     1    33 1   
     4     2     3 2   
     5     2    31 1   
     6     3     4 1   
     7     3    12 1   
     8     4     5 ar  
     9     4    11 ar  
    10     5     6 ar  
    11     5    40 1   
    12     6     7 ar  
    13     6    41 1   
    14     7     8 1   
    15     7    10 ar  
    16     8    38 1   
    17     8    42 1   
    18     8    43 1   
    19     9    38 1   
    20     9    44 1   
    21     9    45 1   
    22     9    46 1   
    23    10    11 ar  
    24    10    25 1   
    25    11    47 1   
    26    12    13 ar  
    27    12    24 ar  
    28    13    14 ar  
    29    13    48 1   
    30    14    15 ar  
    31    14    49 1   
    32    15    16 ar  
    33    15    50 1   
    34    16    17 1   
    35    16    24 ar  
    36    17    23 1   
    37    17    26 1   
    38    17    51 1   
    39    18    19 1   
    40    18    22 2   
    41    18    28 1   
    42    19    29 1   
    43    19    52 1   
    44    19    53 1   
    45    20    21 1   
    46    20    39 1   
    47    20    54 1   
    48    20    55 1   
    49    21    30 1   
    50    21    56 1   
    51    21    57 1   
    52    22    26 1   
    53    22    58 1   
    54    23    59 1   
    55    23    60 1   
    56    23    61 1   
    57    24    31 1   
    58    26    27 1   
    59    27    28 2   
    60    29    39 1   
    61    29    62 1   
    62    30    63 1   
    63    30    64 1   
    64    31    65 1   
    65    34    38 2   
    66    35    38 2   
    67    36    39 2   
    68    37    39 2   
@<TRIPOS>SUBSTRUCTURE
     1 XZH         1 TEMP              0 ****  ****    0 ROOT
