@<TRIPOS>MOLECULE
XZI
   32    33     1     0     0
SMALL
abcg2


@<TRIPOS>ATOM
      1 C10          2.2920    16.4180   -14.9210 ca         1 XZI      -0.070000
      2 C13          5.7710    15.3220   -14.1770 ca         1 XZI      -0.120000
      3 C15          4.5780    13.4970   -15.2120 ca         1 XZI      -0.110000
      4 C17          2.2160    13.7910   -15.8730 ca         1 XZI      -0.192000
      5 C01          0.5520    11.4300   -20.3350 c3         1 XZI       0.083300
      6 C03         -0.6270    10.5030   -18.4080 c3         1 XZI       0.083300
      7 C04          0.2890    12.7960   -18.3530 c          1 XZI       0.569100
      8 C06         -0.2750    12.9180   -16.9360 c3         1 XZI       0.082600
      9 C08          1.1020    14.5870   -15.9480 ca         1 XZI       0.153100
     10 C09          1.1470    15.9190   -15.4650 ca         1 XZI      -0.121000
     11 C11          3.4600    15.6250   -14.8210 ca         1 XZI      -0.065000
     12 C12          4.6590    16.1170   -14.2580 ca         1 XZI      -0.086000
     13 C14          5.7260    13.9980   -14.6600 ca         1 XZI      -0.099000
     14 C16          3.4120    14.2940   -15.3060 ca         1 XZI       0.003000
     15 N02          0.1430    11.6010   -18.9570 n          1 XZI      -0.412800
     16 O05          0.8330    13.7540   -18.8780 o          1 XZI      -0.571100
     17 O07         -0.1010    14.2130   -16.4320 os         1 XZI      -0.320100
     18 H1           2.3150    17.4370   -14.5540 ha         1 XZI       0.115000
     19 H2           6.6850    15.7060   -13.7440 ha         1 XZI       0.112000
     20 H3           4.5480    12.4790   -15.5820 ha         1 XZI       0.110000
     21 H4           2.2210    12.7720   -16.2380 ha         1 XZI       0.115000
     22 H5           1.0440    10.4640   -20.4520 h1         1 XZI       0.042200
     23 H6          -0.3100    11.4560   -21.0070 h1         1 XZI       0.042200
     24 H7           1.2450    12.2110   -20.6290 h1         1 XZI       0.042200
     25 H8          -0.7050    10.5550   -17.3260 h1         1 XZI       0.042200
     26 H9          -1.6370    10.4750   -18.8250 h1         1 XZI       0.042200
     27 H10         -0.1340     9.5630   -18.6510 h1         1 XZI       0.042200
     28 H11         -1.3540    12.7480   -16.9530 h1         1 XZI       0.069200
     29 H12          0.1540    12.1630   -16.2680 h1         1 XZI       0.069200
     30 H13          0.2570    16.5320   -15.5340 ha         1 XZI       0.127000
     31 H14          4.6840    17.1360   -13.8910 ha         1 XZI       0.111000
     32 H15          6.6090    13.3760   -14.5930 ha         1 XZI       0.110000
@<TRIPOS>BOND
     1     1    10 ar  
     2     1    11 ar  
     3     1    18 1   
     4     2    12 ar  
     5     2    13 ar  
     6     2    19 1   
     7     3    13 ar  
     8     3    14 ar  
     9     3    20 1   
    10     4     9 ar  
    11     4    14 ar  
    12     4    21 1   
    13     5    15 1   
    14     5    22 1   
    15     5    23 1   
    16     5    24 1   
    17     6    15 1   
    18     6    25 1   
    19     6    26 1   
    20     6    27 1   
    21     7     8 1   
    22     7    15 1   
    23     7    16 2   
    24     8    17 1   
    25     8    28 1   
    26     8    29 1   
    27     9    10 ar  
    28     9    17 1   
    29    10    30 1   
    30    11    12 ar  
    31    11    14 ar  
    32    12    31 1   
    33    13    32 1   
@<TRIPOS>SUBSTRUCTURE
     1 XZI         1 TEMP              0 ****  ****    0 ROOT
