@<TRIPOS>MOLECULE
XZI
   32    33     1     0     0
SMALL
No Charge or Current Charge


@<TRIPOS>ATOM
      1 C10          2.3080    16.4770   -14.8660 ca         1 XZI      -0.070000
      2 C13          5.7850    15.2560   -14.3210 ca         1 XZI      -0.120000
      3 C15          4.4550    13.4640   -15.2950 ca         1 XZI      -0.110000
      4 C17          2.1010    13.8350   -15.8200 ca         1 XZI      -0.192000
      5 C01          0.8260    11.3920   -20.2850 c3         1 XZI       0.083300
      6 C03         -0.5010    10.4160   -18.3560 c3         1 XZI       0.083300
      7 C04          0.1810    12.8560   -18.3450 c          1 XZI       0.569100
      8 C06         -0.4780    12.9850   -16.9410 c3         1 XZI       0.082600
      9 C08          0.9730    14.6850   -15.8470 ca         1 XZI       0.153100
     10 C09          1.0840    16.0000   -15.3660 ca         1 XZI      -0.121000
     11 C11          3.4340    15.6340   -14.8420 ca         1 XZI      -0.065000
     12 C12          4.6640    16.1040   -14.3430 ca         1 XZI      -0.086000
     13 C14          5.6810    13.9380   -14.7960 ca         1 XZI      -0.099000
     14 C16          3.3290    14.3090   -15.3200 ca         1 XZI       0.003000
     15 N02          0.1830    11.5810   -18.9640 n          1 XZI      -0.412800
     16 O05          0.6990    13.8140   -18.9100 o          1 XZI      -0.571100
     17 O07         -0.2610    14.2780   -16.3200 os         1 XZI      -0.320100
     18 H1           2.3790    17.4980   -14.4980 ha         1 XZI       0.115000
     19 H2           6.7340    15.6220   -13.9350 ha         1 XZI       0.112000
     20 H3           4.3830    12.4430   -15.6610 ha         1 XZI       0.110000
     21 H4           2.0420    12.8130   -16.1780 ha         1 XZI       0.115000
     22 H5           0.8920    10.3260   -20.5380 h1         1 XZI       0.042200
     23 H6           0.2390    11.9060   -21.0570 h1         1 XZI       0.042200
     24 H7           1.8410    11.8090   -20.2690 h1         1 XZI       0.042200
     25 H8           0.0170    10.1190   -17.4350 h1         1 XZI       0.042200
     26 H9          -1.5420    10.6730   -18.1200 h1         1 XZI       0.042200
     27 H10         -0.5040     9.5640   -19.0470 h1         1 XZI       0.042200
     28 H11         -1.5530    12.8200   -17.0830 h1         1 XZI       0.069200
     29 H12         -0.1090    12.1780   -16.2970 h1         1 XZI       0.069200
     30 H13          0.2160    16.6540   -15.3820 ha         1 XZI       0.127000
     31 H14          4.7520    17.1230   -13.9730 ha         1 XZI       0.111000
     32 H15          6.5500    13.2830   -14.7780 ha         1 XZI       0.110000
@<TRIPOS>BOND
     1     1    10 ar  
     2     1    11 ar  
     3     1    18 1   
     4     2    12 ar  
     5     2    13 ar  
     6     2    19 1   
     7     3    13 ar  
     8     3    14 ar  
     9     3    20 1   
    10     4     9 ar  
    11     4    14 ar  
    12     4    21 1   
    13     5    15 1   
    14     5    22 1   
    15     5    23 1   
    16     5    24 1   
    17     6    15 1   
    18     6    25 1   
    19     6    26 1   
    20     6    27 1   
    21     7     8 1   
    22     7    15 1   
    23     7    16 2   
    24     8    17 1   
    25     8    28 1   
    26     8    29 1   
    27     9    10 ar  
    28     9    17 1   
    29    10    30 1   
    30    11    12 ar  
    31    11    14 ar  
    32    12    31 1   
    33    13    32 1   
@<TRIPOS>SUBSTRUCTURE
     1 XZI         1 TEMP              0 ****  ****    0 ROOT
