@<TRIPOS>MOLECULE
XZJ
   65    65     1     0     0
SMALL
bcc


@<TRIPOS>ATOM
      1 C1         -16.1230    12.1570    34.2120 c3         1 XZJ      -0.088600
      2 C10        -14.7930    10.8170    25.6350 c5         1 XZJ       0.156800
      3 C11        -13.0320     9.9650    26.8630 c          1 XZJ       0.743800
      4 C12        -15.9070    10.0360    24.9640 c3         1 XZJ       0.143400
      5 C13        -14.4670    12.0820    24.8600 c3         1 XZJ       0.136400
      6 C14        -12.9290    13.8660    25.0650 c          1 XZJ       0.648100
      7 C15        -11.9480    14.5390    26.0100 c3         1 XZJ      -0.096000
      8 C16        -11.1480    15.5920    25.2470 c3         1 XZJ      -0.083433
      9 C17        -10.9930    13.5150    26.6310 c3         1 XZJ      -0.083433
     10 C18        -12.7670    15.2210    27.1150 c3         1 XZJ      -0.083433
     11 C2         -15.1200    11.5540    33.2320 c3         1 XZJ      -0.060700
     12 C20        -11.9050    14.1610    31.4490 c3         1 XZJ      -0.060700
     13 C21        -10.8070    13.2750    32.0320 c3         1 XZJ      -0.088600
     14 C22        -11.2940    15.3140    30.6590 c3         1 XZJ      -0.088600
     15 C3         -14.0480    10.7730    33.9870 c3         1 XZJ      -0.088600
     16 C4         -14.5110    12.6570    32.3610 c3         1 XZJ      -0.072900
     17 C5         -13.6020    12.1970    31.2190 c3         1 XZJ      -0.051700
     18 C6         -14.4080    11.4320    30.1620 c3         1 XZJ      -0.059200
     19 C7         -13.5650    10.7960    29.1130 c2         1 XZJ      -0.063200
     20 C8         -13.8980    10.6590    27.8310 ce         1 XZJ      -0.239400
     21 C9         -15.1330    11.0910    27.1130 c5         1 XZJ      -0.055200
     22 O1         -13.6000    10.0080    25.6530 os         1 XZJ      -0.384900
     23 O3         -15.5730     9.7870    23.6250 oh         1 XZJ      -0.580800
     24 O4         -13.4790    12.7820    25.6070 os         1 XZJ      -0.425900
     25 O5         -13.2240    14.2610    23.9660 o          1 XZJ      -0.532000
     26 H1         -16.5780    11.3880    34.8370 hc         1 XZJ       0.033117
     27 H2         -15.6360    12.8770    34.8750 hc         1 XZJ       0.033117
     28 H3         -16.9260    12.6800    33.6890 hc         1 XZJ       0.033117
     29 H4         -16.8260    10.6300    25.0590 h1         1 XZJ       0.030700
     30 H5         -16.0670     9.1090    25.5310 h1         1 XZJ       0.030700
     31 H6         -15.3710    12.6900    24.7600 h1         1 XZJ       0.070200
     32 H7         -14.0980    11.8440    23.8610 h1         1 XZJ       0.070200
     33 H8         -10.4490    16.0770    25.9300 hc         1 XZJ       0.044256
     34 H9         -10.5670    15.1510    24.4360 hc         1 XZJ       0.044256
     35 H10        -11.7880    16.3660    24.8250 hc         1 XZJ       0.044256
     36 H11        -11.5130    12.7820    27.2460 hc         1 XZJ       0.044256
     37 H12        -10.4230    12.9810    25.8680 hc         1 XZJ       0.044256
     38 H13        -10.2800    14.0340    27.2730 hc         1 XZJ       0.044256
     39 H14        -13.3200    14.5030    27.7210 hc         1 XZJ       0.044256
     40 H15        -12.0920    15.7630    27.7780 hc         1 XZJ       0.044256
     41 H16        -13.4750    15.9410    26.7010 hc         1 XZJ       0.044256
     42 H17        -13.6230    14.0620    30.1540 hc         1 XZJ       0.040700
     43 H18        -12.3110    13.0040    29.6960 hc         1 XZJ       0.040700
     44 H19        -15.6660    10.8520    32.5930 hc         1 XZJ       0.043200
     45 H20        -12.4660    14.5960    32.2830 hc         1 XZJ       0.043200
     46 H21        -11.2050    12.5120    32.7030 hc         1 XZJ       0.033117
     47 H22        -10.2560    12.7640    31.2380 hc         1 XZJ       0.033117
     48 H23        -10.0910    13.8670    32.6030 hc         1 XZJ       0.033117
     49 H24        -10.6180    15.9040    31.2800 hc         1 XZJ       0.033117
     50 H25        -10.7230    14.9440    29.8040 hc         1 XZJ       0.033117
     51 H26        -12.0640    15.9840    30.2730 hc         1 XZJ       0.033117
     52 H27        -14.4960    10.0210    34.6390 hc         1 XZJ       0.033117
     53 H28        -13.3640    10.2530    33.3150 hc         1 XZJ       0.033117
     54 H29        -13.4520    11.4420    34.6130 hc         1 XZJ       0.033117
     55 H30        -13.9560    13.3260    33.0270 hc         1 XZJ       0.040700
     56 H31        -15.3180    13.2650    31.9330 hc         1 XZJ       0.040700
     57 H32        -12.8510    11.5060    31.6170 hc         1 XZJ       0.054700
     58 H33        -15.1530    12.0950    29.7100 hc         1 XZJ       0.055200
     59 H34        -14.9760    10.6290    30.6460 hc         1 XZJ       0.055200
     60 H35        -12.6140    10.3780    29.4360 ha         1 XZJ       0.146000
     61 H37        -15.3930    12.1350    27.2930 hc         1 XZJ       0.067200
     62 H38        -16.3220     9.3580    23.1990 ho         1 XZJ       0.411000
     63 H36        -15.9950    10.4940    27.4260 hc         1 XZJ       0.067200
     64 O2         -11.9820     9.4060    27.0430 o          1 XZJ      -0.571500
     65 C19        -12.8740    13.3730    30.5630 c3         1 XZJ      -0.072900
@<TRIPOS>BOND
     1     1    11 1   
     2     1    26 1   
     3     1    27 1   
     4     1    28 1   
     5     2     4 1   
     6     2     5 1   
     7     2    21 1   
     8     2    22 1   
     9     3    20 1   
    10     3    22 1   
    11     3    64 2   
    12     4    23 1   
    13     4    29 1   
    14     4    30 1   
    15     5    24 1   
    16     5    31 1   
    17     5    32 1   
    18     6     7 1   
    19     6    24 1   
    20     6    25 2   
    21     7     8 1   
    22     7     9 1   
    23     7    10 1   
    24     8    33 1   
    25     8    34 1   
    26     8    35 1   
    27     9    36 1   
    28     9    37 1   
    29     9    38 1   
    30    10    39 1   
    31    10    40 1   
    32    10    41 1   
    33    11    15 1   
    34    11    16 1   
    35    11    44 1   
    36    12    13 1   
    37    12    14 1   
    38    12    45 1   
    39    12    65 1   
    40    13    46 1   
    41    13    47 1   
    42    13    48 1   
    43    14    49 1   
    44    14    50 1   
    45    14    51 1   
    46    15    52 1   
    47    15    53 1   
    48    15    54 1   
    49    16    17 1   
    50    16    55 1   
    51    16    56 1   
    52    17    18 1   
    53    17    57 1   
    54    17    65 1   
    55    18    19 1   
    56    18    58 1   
    57    18    59 1   
    58    19    20 2   
    59    19    60 1   
    60    20    21 1   
    61    21    61 1   
    62    21    63 1   
    63    23    62 1   
    64    42    65 1   
    65    43    65 1   
@<TRIPOS>SUBSTRUCTURE
     1 XZJ         1 TEMP              0 ****  ****    0 ROOT
