@<TRIPOS>MOLECULE
XZJ
   65    65     1     0     0
SMALL
No Charge or Current Charge


@<TRIPOS>ATOM
      1 C1         -16.1100    12.5170    34.1890 c3         1 XZJ      -0.088600
      2 C10        -14.7900    10.5450    25.5780 c5         1 XZJ       0.180000
      3 C11        -12.9470     9.8770    26.7940 c          1 XZJ       0.668300
      4 C12        -15.9230     9.7790    24.8200 c3         1 XZJ       0.166600
      5 C13        -14.4440    11.8650    24.8120 c3         1 XZJ       0.159600
      6 C14        -13.0630    13.8320    25.0930 c          1 XZJ       0.599100
      7 C15        -12.2050    14.6140    26.1330 c3         1 XZJ      -0.096000
      8 C16        -11.5580    15.8670    25.4770 c3         1 XZJ      -0.083433
      9 C17        -11.0810    13.6920    26.6860 c3         1 XZJ      -0.083433
     10 C18        -13.1240    15.0670    27.2990 c3         1 XZJ      -0.083433
     11 C2         -15.2770    11.8180    33.0900 c3         1 XZJ      -0.060700
     12 C20        -11.5630    14.1510    31.5370 c3         1 XZJ      -0.060700
     13 C21        -10.5680    13.1660    32.1960 c3         1 XZJ      -0.088600
     14 C22        -10.8050    15.2690    30.7850 c3         1 XZJ      -0.088600
     15 C3         -14.4840    10.6280    33.6820 c3         1 XZJ      -0.088600
     16 C4         -14.3690    12.8470    32.3530 c3         1 XZJ      -0.072900
     17 C5         -13.4640    12.3110    31.1960 c3         1 XZJ      -0.051700
     18 C6         -14.2840    11.6040    30.0760 c3         1 XZJ      -0.059200
     19 C7         -13.4260    10.9100    29.0320 c2         1 XZJ      -0.113200
     20 C8         -13.8160    10.5750    27.7810 ce         1 XZJ      -0.239400
     21 C9         -15.1550    10.7830    27.0850 c5         1 XZJ      -0.055200
     22 O1         -13.6050     9.7110    25.6150 os         1 XZJ      -0.408100
     23 O3         -15.6300     9.6040    23.4200 oh         1 XZJ      -0.643000
     24 O4         -13.5710    12.6770    25.6240 os         1 XZJ      -0.449100
     25 O5         -13.2640    14.1970    23.9410 o          1 XZJ      -0.483000
     26 H1         -16.7950    11.8070    34.6680 hc         1 XZJ       0.033117
     27 H2         -15.4590    12.9420    34.9640 hc         1 XZJ       0.033117
     28 H3         -16.7110    13.3290    33.7630 hc         1 XZJ       0.033117
     29 H4         -16.8590    10.3410    24.9360 h1         1 XZJ       0.030700
     30 H5         -16.0680     8.8020    25.3000 h1         1 XZJ       0.030700
     31 H6         -15.3720    12.4090    24.5910 h1         1 XZJ       0.070200
     32 H7         -13.9640    11.6100    23.8580 h1         1 XZJ       0.070200
     33 H8         -10.9540    16.4230    26.2050 hc         1 XZJ       0.044256
     34 H9         -10.9030    15.5800    24.6450 hc         1 XZJ       0.044256
     35 H10        -12.3250    16.5470    25.0860 hc         1 XZJ       0.044256
     36 H11        -11.4980    12.8240    27.2100 hc         1 XZJ       0.044256
     37 H12        -10.4450    13.3230    25.8720 hc         1 XZJ       0.044256
     38 H13        -10.4440    14.2340    27.3960 hc         1 XZJ       0.044256
     39 H14        -13.5910    14.2050    27.7900 hc         1 XZJ       0.044256
     40 H15        -12.5550    15.6210    28.0550 hc         1 XZJ       0.044256
     41 H16        -13.9260    15.7190    26.9310 hc         1 XZJ       0.044256
     42 H17        -13.2480    14.2130    30.1780 hc         1 XZJ       0.040700
     43 H18        -12.0140    13.0510    29.7370 hc         1 XZJ       0.040700
     44 H19        -16.0000    11.4130    32.3730 hc         1 XZJ       0.043200
     45 H20        -12.1200    14.6460    32.3400 hc         1 XZJ       0.043200
     46 H21        -11.0860    12.4690    32.8650 hc         1 XZJ       0.033117
     47 H22        -10.0320    12.5850    31.4360 hc         1 XZJ       0.033117
     48 H23         -9.8290    13.7070    32.7970 hc         1 XZJ       0.033117
     49 H24        -10.1250    15.8010    31.4620 hc         1 XZJ       0.033117
     50 H25        -10.2130    14.8550    29.9600 hc         1 XZJ       0.033117
     51 H26        -11.5060    16.0030    30.3700 hc         1 XZJ       0.033117
     52 H27        -15.1490     9.9610    34.2430 hc         1 XZJ       0.033117
     53 H28        -14.0140    10.0320    32.8900 hc         1 XZJ       0.033117
     54 H29        -13.6990    10.9800    34.3620 hc         1 XZJ       0.033117
     55 H30        -13.7320    13.3140    33.1120 hc         1 XZJ       0.040700
     56 H31        -15.0030    13.6480    31.9520 hc         1 XZJ       0.040700
     57 H32        -12.7910    11.5570    31.6190 hc         1 XZJ       0.054700
     58 H33        -14.9410    12.3410    29.5990 hc         1 XZJ       0.055200
     59 H34        -14.9410    10.8460    30.5150 hc         1 XZJ       0.055200
     60 H35        -12.4160    10.6630    29.3690 ha         1 XZJ       0.196000
     61 H37        -15.5670    11.7840    27.2600 hc         1 XZJ       0.067200
     62 H38        -16.3460     9.0440    23.0440 ho         1 XZJ       0.450000
     63 H36        -15.8960    10.0620    27.4510 hc         1 XZJ       0.067200
     64 O2         -11.8110     9.4790    27.0030 o          1 XZJ      -0.496000
     65 C19        -12.5790    13.4480    30.5890 c3         1 XZJ      -0.072900
@<TRIPOS>BOND
     1     1    11 1   
     2     1    26 1   
     3     1    27 1   
     4     1    28 1   
     5     2     4 1   
     6     2     5 1   
     7     2    21 1   
     8     2    22 1   
     9     3    20 1   
    10     3    22 1   
    11     3    64 2   
    12     4    23 1   
    13     4    29 1   
    14     4    30 1   
    15     5    24 1   
    16     5    31 1   
    17     5    32 1   
    18     6     7 1   
    19     6    24 1   
    20     6    25 2   
    21     7     8 1   
    22     7     9 1   
    23     7    10 1   
    24     8    33 1   
    25     8    34 1   
    26     8    35 1   
    27     9    36 1   
    28     9    37 1   
    29     9    38 1   
    30    10    39 1   
    31    10    40 1   
    32    10    41 1   
    33    11    15 1   
    34    11    16 1   
    35    11    44 1   
    36    12    13 1   
    37    12    14 1   
    38    12    45 1   
    39    12    65 1   
    40    13    46 1   
    41    13    47 1   
    42    13    48 1   
    43    14    49 1   
    44    14    50 1   
    45    14    51 1   
    46    15    52 1   
    47    15    53 1   
    48    15    54 1   
    49    16    17 1   
    50    16    55 1   
    51    16    56 1   
    52    17    18 1   
    53    17    57 1   
    54    17    65 1   
    55    18    19 1   
    56    18    58 1   
    57    18    59 1   
    58    19    20 2   
    59    19    60 1   
    60    20    21 1   
    61    21    61 1   
    62    21    63 1   
    63    23    62 1   
    64    42    65 1   
    65    43    65 1   
@<TRIPOS>SUBSTRUCTURE
     1 XZJ         1 TEMP              0 ****  ****    0 ROOT
