@<TRIPOS>MOLECULE
XZK
   32    33     1     0     0
SMALL
No Charge or Current Charge


@<TRIPOS>ATOM
      1 C13         18.6500    63.0590    16.1900 ca         1 XZK      -0.166600
      2 C15         20.1890    63.8910    17.9350 ca         1 XZK      -0.185200
      3 C17         20.3880    64.6980    15.6480 ca         1 XZK      -0.120000
      4 C01         13.8380    62.0190    12.4360 ca         1 XZK      -0.042500
      5 C02         14.9660    62.5500    13.0850 ca         1 XZK      -0.159500
      6 C03         15.5490    61.8890    14.1790 ca         1 XZK      -0.003000
      7 C04         14.9800    60.6730    14.6150 ca         1 XZK      -0.159500
      8 C05         13.8510    60.1370    13.9690 ca         1 XZK      -0.042500
      9 C06         13.2630    60.8050    12.8690 ca         1 XZK      -0.177600
     10 C07         12.0490    60.2570    12.1520 c          1 XZK       0.620700
     11 C11         17.4760    62.1510    15.8690 c          1 XZK       0.626700
     12 C14         19.1130    63.0680    17.5290 ca         1 XZK       0.000000
     13 C16         20.8220    64.7130    16.9800 ca         1 XZK      -0.022000
     14 C18         19.3190    63.8830    15.2410 ca         1 XZK       0.171000
     15 N09         11.5170    59.0940    12.5850 nt         1 XZK      -0.603000
     16 N10         16.6900    62.4930    14.7770 ns         1 XZK      -0.133000
     17 N20         20.6510    63.8910    19.3610 no         1 XZK       0.697200
     18 O08         11.5350    60.8230    11.2010 o          1 XZK      -0.605100
     19 O12         17.2510    61.1680    16.5660 o          1 XZK      -0.548100
     20 O21         21.5970    64.6280    19.6690 o          1 XZK      -0.388000
     21 O22         20.0660    63.1560    20.1660 o          1 XZK      -0.388000
     22 Cl1         18.9470    63.9060    13.5140 cl         1 XZK      -0.156000
     23 H1          20.8960    65.3200    14.9140 ha         1 XZK       0.148000
     24 H3          15.3880    63.4880    12.7280 ha         1 XZK       0.133000
     25 H4          15.3950    60.1210    15.4510 ha         1 XZK       0.133000
     26 H5          13.4460    59.1980    14.3380 ha         1 XZK       0.126500
     27 H6          18.6160    62.4370    18.2660 ha         1 XZK       0.169000
     28 H7          21.6560    65.3580    17.2570 ha         1 XZK       0.160000
     29 H8          10.7070    58.7200    12.1130 hn         1 XZK       0.314000
     30 H9          11.9240    58.6070    13.3680 hn         1 XZK       0.314000
     31 H10         16.9840    63.3420    14.3140 hn         1 XZK       0.160000
     32 H2          13.4120    62.5580    11.5920 ha         1 XZK       0.126500
@<TRIPOS>BOND
     1     1    11 1   
     2     1    12 ar  
     3     1    14 ar  
     4     2    12 ar  
     5     2    13 ar  
     6     2    17 1   
     7     3    13 ar  
     8     3    14 ar  
     9     3    23 1   
    10     4     5 ar  
    11     4     9 ar  
    12     4    32 1   
    13     5     6 ar  
    14     5    24 1   
    15     6     7 ar  
    16     6    16 1   
    17     7     8 ar  
    18     7    25 1   
    19     8     9 ar  
    20     8    26 1   
    21     9    10 1   
    22    10    15 1   
    23    10    18 2   
    24    11    16 1   
    25    11    19 2   
    26    12    27 1   
    27    13    28 1   
    28    14    22 1   
    29    15    29 1   
    30    15    30 1   
    31    16    31 1   
    32    17    20 1   
    33    17    21 1   
@<TRIPOS>SUBSTRUCTURE
     1 XZK         1 TEMP              0 ****  ****    0 ROOT
