@<TRIPOS>MOLECULE
XZK
   32    33     1     0     0
SMALL
abcg2


@<TRIPOS>ATOM
      1 C13         18.7410    62.8880    16.0560 ca         1 XZK      -0.166600
      2 C15         19.9440    64.0240    17.7840 ca         1 XZK      -0.185200
      3 C17         20.7210    64.1800    15.5360 ca         1 XZK      -0.120000
      4 C01         13.6130    62.2460    12.9170 ca         1 XZK      -0.042500
      5 C02         14.7540    62.7420    13.5120 ca         1 XZK      -0.159500
      6 C03         15.5370    61.9330    14.3410 ca         1 XZK      -0.003000
      7 C04         15.1440    60.6130    14.5610 ca         1 XZK      -0.159500
      8 C05         14.0020    60.1250    13.9440 ca         1 XZK      -0.042500
      9 C06         13.2250    60.9220    13.1110 ca         1 XZK      -0.177600
     10 C07         11.9770    60.4440    12.4430 c          1 XZK       0.620700
     11 C11         17.6250    61.9550    15.6790 c          1 XZK       0.626700
     12 C14         18.8970    63.2060    17.3970 ca         1 XZK       0.000000
     13 C16         20.8590    64.5180    16.8680 ca         1 XZK      -0.022000
     14 C18         19.6690    63.3680    15.1360 ca         1 XZK       0.171000
     15 N09         11.8430    59.1150    12.3040 nt         1 XZK      -0.603000
     16 N10         16.6720    62.5210    14.9030 ns         1 XZK      -0.133000
     17 N20         20.0910    64.3650    19.1930 no         1 XZK       0.697200
     18 O08         11.1310    61.2370    12.0530 o          1 XZK      -0.605100
     19 O12         17.6160    60.8150    16.0950 o          1 XZK      -0.548100
     20 O21         21.0220    65.0670    19.5060 o          1 XZK      -0.388000
     21 O22         19.2750    63.9280    19.9680 o          1 XZK      -0.388000
     22 CL1         19.5490    62.9260    13.4770 cl         1 XZK      -0.156000
     23 H1          21.4350    64.5430    14.8090 ha         1 XZK       0.148000
     24 H3          15.0440    63.7710    13.3330 ha         1 XZK       0.133000
     25 H4          15.7060    59.9620    15.2090 ha         1 XZK       0.133000
     26 H5          13.7220    59.1010    14.1570 ha         1 XZK       0.126500
     27 H6          18.1950    62.8190    18.1220 ha         1 XZK       0.169000
     28 H7          21.6780    65.1520    17.1740 ha         1 XZK       0.160000
     29 H8          11.0300    58.7470    11.8380 hn         1 XZK       0.314000
     30 H9          12.5940    58.4710    12.4790 hn         1 XZK       0.314000
     31 H10         16.7970    63.5000    14.6870 hn         1 XZK       0.160000
     32 H2          13.0230    62.8960    12.2850 ha         1 XZK       0.126500
@<TRIPOS>BOND
     1     1    11 1   
     2     1    12 ar  
     3     1    14 ar  
     4     2    12 ar  
     5     2    13 ar  
     6     2    17 1   
     7     3    13 ar  
     8     3    14 ar  
     9     3    23 1   
    10     4     5 ar  
    11     4     9 ar  
    12     4    32 1   
    13     5     6 ar  
    14     5    24 1   
    15     6     7 ar  
    16     6    16 1   
    17     7     8 ar  
    18     7    25 1   
    19     8     9 ar  
    20     8    26 1   
    21     9    10 1   
    22    10    15 1   
    23    10    18 2   
    24    11    16 1   
    25    11    19 2   
    26    12    27 1   
    27    13    28 1   
    28    14    22 1   
    29    15    29 1   
    30    15    30 1   
    31    16    31 1   
    32    17    20 1   
    33    17    21 1   
@<TRIPOS>SUBSTRUCTURE
     1 XZK         1 TEMP              0 ****  ****    0 ROOT
