@<TRIPOS>MOLECULE
XZL
   59    62     1     0     0
SMALL
No Charge or Current Charge


@<TRIPOS>ATOM
      1 C01        -21.8770   -11.7820    15.7930 c3         1 XZL      -0.086100
      2 C02        -23.1150   -11.9270    14.8900 c3         1 XZL       0.231600
      3 C04        -25.3930   -12.8600    15.2090 ca         1 XZL       0.156100
      4 C05        -25.9240   -12.2210    14.0660 ca         1 XZL      -0.171000
      5 C06        -27.2610   -12.4450    13.6900 ca         1 XZL      -0.062500
      6 C07        -28.0810   -13.3040    14.4490 ca         1 XZL      -0.138300
      7 C08        -29.5300   -13.5370    14.0470 c3         1 XZL       0.206100
      8 C10        -27.5500   -13.9340    15.5900 ca         1 XZL      -0.062500
      9 C11        -26.2140   -13.7110    15.9650 ca         1 XZL      -0.171000
     10 C12        -22.7760   -12.6520    13.5820 ca         1 XZL      -0.144300
     11 C13        -22.6190   -11.9570    12.3670 ca         1 XZL      -0.054200
     12 C15        -22.4450   -10.3020    10.7700 cc         1 XZL      -0.054300
     13 C16        -22.4940    -8.9500    10.1230 c          1 XZL       0.725200
     14 C19        -22.2280   -11.5580    10.1760 cd         1 XZL      -0.154400
     15 C20        -21.6890   -11.8470     8.8280 ca         1 XZL       0.096200
     16 C21        -20.6710   -11.0550     8.2620 ca         1 XZL      -0.106000
     17 C22        -20.1510   -11.3550     6.9950 ca         1 XZL       0.163000
     18 C24        -20.6340   -12.4570     6.2600 ca         1 XZL      -0.160300
     19 C25        -20.0780   -12.8000     4.8730 c3         1 XZL      -0.200100
     20 C27        -21.1010   -10.3680     3.7570 c3         1 XZL      -0.323100
     21 C30        -21.6440   -13.2570     6.8240 ca         1 XZL      -0.068000
     22 C31        -22.1620   -12.9550     8.0950 ca         1 XZL      -0.132000
     23 C32        -22.3200   -12.5960    11.1940 ca         1 XZL      -0.083800
     24 C33        -22.1140   -13.9850    11.1490 ca         1 XZL      -0.067000
     25 C34        -22.2600   -14.7140    12.3460 ca         1 XZL      -0.159000
     26 C35        -22.5920   -14.0550    13.5520 ca         1 XZL      -0.089000
     27 F23        -19.1690   -10.5770     6.4870 f          1 XZL      -0.199000
     28 N09        -29.6690   -14.7660    13.2500 n8         1 XZL      -0.999200
     29 N14        -22.6930   -10.5960    12.1290 na         1 XZL      -0.200700
     30 O03        -24.0920   -12.6790    15.6360 os         1 XZL      -0.355100
     31 O17        -22.4350    -8.8350     8.9080 o          1 XZL      -0.699000
     32 O18        -22.6630    -7.9860    10.8580 o          1 XZL      -0.699000
     33 O28        -22.3940   -12.6610     3.5500 o          1 XZL      -0.535000
     34 O29        -20.2400   -12.3560     2.2510 o          1 XZL      -0.535000
     35 S26        -21.0230   -12.1360     3.4740 s6         1 XZL       1.062000
     36 H013       -22.1350   -11.2530    16.7170 hc         1 XZL       0.045367
     37 H011       -21.4680   -12.7650    16.0550 hc         1 XZL       0.045367
     38 H012       -21.0960   -11.2110    15.2780 hc         1 XZL       0.045367
     39 H021       -23.4990   -10.9210    14.6790 h1         1 XZL       0.043700
     40 H051       -25.3210   -11.5520    13.4620 ha         1 XZL       0.126000
     41 H061       -27.6590   -11.9490    12.8080 ha         1 XZL       0.112500
     42 H082       -30.1580   -13.6230    14.9450 h1         1 XZL       0.028200
     43 H081       -29.8950   -12.6870    13.4530 h1         1 XZL       0.028200
     44 H101       -28.1740   -14.5990    16.1850 ha         1 XZL       0.112500
     45 H111       -25.8110   -14.2010    16.8470 ha         1 XZL       0.126000
     46 H211       -20.2580   -10.2180     8.8150 ha         1 XZL       0.152000
     47 H252       -20.0540   -13.8850     4.7270 h1         1 XZL       0.097700
     48 H251       -19.0580   -12.4160     4.7550 h1         1 XZL       0.097700
     49 H272       -21.6370   -10.2050     4.6980 h1         1 XZL       0.106367
     50 H271       -20.0740    -9.9940     3.8160 h1         1 XZL       0.106367
     51 H273       -21.6390    -9.9220     2.9140 h1         1 XZL       0.106367
     52 H301       -22.0360   -14.1110     6.2750 ha         1 XZL       0.110000
     53 H311       -22.9620   -13.5690     8.4980 ha         1 XZL       0.121000
     54 H331       -21.8340   -14.4960    10.2330 ha         1 XZL       0.108000
     55 H341       -22.1090   -15.7910    12.3440 ha         1 XZL       0.096000
     56 H351       -22.6950   -14.6370    14.4650 ha         1 XZL       0.106000
     57 H092       -30.6370   -14.8360    12.9180 hn         1 XZL       0.391000
     58 H091       -29.1200   -14.6580    12.3900 hn         1 XZL       0.391000
     59 H141       -22.8970    -9.8890    12.8270 hn         1 XZL       0.369000
@<TRIPOS>BOND
     1     1     2 1   
     2     1    36 1   
     3     1    37 1   
     4     1    38 1   
     5     2    10 1   
     6     2    30 1   
     7     2    39 1   
     8     3     4 ar  
     9     3     9 ar  
    10     3    30 1   
    11     4     5 ar  
    12     4    40 1   
    13     5     6 ar  
    14     5    41 1   
    15     6     7 1   
    16     6     8 ar  
    17     7    28 1   
    18     7    42 1   
    19     7    43 1   
    20     8     9 ar  
    21     8    44 1   
    22     9    45 1   
    23    10    11 ar  
    24    10    26 ar  
    25    11    23 ar  
    26    11    29 1   
    27    12    13 1   
    28    12    14 2   
    29    12    29 1   
    30    13    31 1   
    31    13    32 1   
    32    14    15 1   
    33    14    23 1   
    34    15    16 ar  
    35    15    22 ar  
    36    16    17 ar  
    37    16    46 1   
    38    17    18 ar  
    39    17    27 1   
    40    18    19 1   
    41    18    21 ar  
    42    19    35 1   
    43    19    47 1   
    44    19    48 1   
    45    20    35 1   
    46    20    49 1   
    47    20    50 1   
    48    20    51 1   
    49    21    22 ar  
    50    21    52 1   
    51    22    53 1   
    52    23    24 ar  
    53    24    25 ar  
    54    24    54 1   
    55    25    26 ar  
    56    25    55 1   
    57    26    56 1   
    58    28    57 1   
    59    28    58 1   
    60    29    59 1   
    61    33    35 2   
    62    34    35 2   
@<TRIPOS>SUBSTRUCTURE
     1 XZL         1 TEMP              0 ****  ****    0 ROOT
