@<TRIPOS>MOLECULE
XZL
   59    62     1     0     0
SMALL
abcg2


@<TRIPOS>ATOM
      1 C01        -22.0240   -11.6590    15.7070 c3         1 XZL      -0.086100
      2 C02        -23.2330   -11.9110    14.8240 c3         1 XZL       0.231600
      3 C04        -25.4100   -12.8540    15.1360 ca         1 XZL       0.156100
      4 C05        -25.9590   -12.2100    14.0320 ca         1 XZL      -0.171000
      5 C06        -27.2830   -12.4570    13.6800 ca         1 XZL      -0.062500
      6 C07        -28.0840   -13.3320    14.3980 ca         1 XZL      -0.138300
      7 C08        -29.5170   -13.5840    14.0100 c3         1 XZL       0.206100
      8 C10        -27.5130   -13.9790    15.4960 ca         1 XZL      -0.062500
      9 C11        -26.2010   -13.7460    15.8640 ca         1 XZL      -0.171000
     10 C12        -22.8450   -12.6230    13.5490 ca         1 XZL      -0.144300
     11 C13        -22.5960   -11.9260    12.3620 ca         1 XZL      -0.054200
     12 C15        -22.3380   -10.3560    10.7800 cc         1 XZL      -0.054300
     13 C16        -22.4320    -8.9360    10.2680 c          1 XZL       0.725200
     14 C19        -22.0260   -11.5550    10.1750 cd         1 XZL      -0.154400
     15 C20        -21.5870   -11.8290     8.8030 ca         1 XZL       0.096200
     16 C21        -20.5030   -11.1630     8.2340 ca         1 XZL      -0.106000
     17 C22        -20.0860   -11.5060     6.9670 ca         1 XZL       0.163000
     18 C24        -20.6940   -12.4940     6.2050 ca         1 XZL      -0.160300
     19 C25        -20.2150   -12.8490     4.8390 c3         1 XZL      -0.200100
     20 C27        -20.7470   -10.2860     3.7120 c3         1 XZL      -0.323100
     21 C30        -21.7760   -13.1510     6.7850 ca         1 XZL      -0.068000
     22 C31        -22.2140   -12.8300     8.0580 ca         1 XZL      -0.132000
     23 C32        -22.1880   -12.5720    11.1740 ca         1 XZL      -0.083800
     24 C33        -22.0070   -13.9600    11.1790 ca         1 XZL      -0.067000
     25 C34        -22.2500   -14.6550    12.3460 ca         1 XZL      -0.159000
     26 C35        -22.6630   -13.9940    13.5130 ca         1 XZL      -0.089000
     27 F23        -19.0300   -10.8550     6.4460 f          1 XZL      -0.199000
     28 N09        -29.7720   -15.0050    13.8250 n8         1 XZL      -0.999200
     29 N14        -22.6750   -10.5970    12.0820 na         1 XZL      -0.200700
     30 O03        -24.1470   -12.6820    15.5880 os         1 XZL      -0.355100
     31 O17        -22.1820    -8.7490     9.0670 o          1 XZL      -0.699000
     32 O18        -22.7720    -8.0970    11.1250 o          1 XZL      -0.699000
     33 O28        -22.5670   -12.1910     3.7800 o          1 XZL      -0.535000
     34 O29        -20.6000   -12.4790     2.2520 o          1 XZL      -0.535000
     35 S26        -21.1390   -12.0130     3.5290 s6         1 XZL       1.062000
     36 H013       -22.3070   -11.1180    16.6110 hc         1 XZL       0.045367
     37 H011       -21.5430   -12.5950    15.9920 hc         1 XZL       0.045367
     38 H012       -21.2960   -11.0550    15.1660 hc         1 XZL       0.045367
     39 H021       -23.6870   -10.9410    14.5870 h1         1 XZL       0.043700
     40 H051       -25.3860   -11.5200    13.4290 ha         1 XZL       0.126000
     41 H061       -27.6900   -11.9470    12.8150 ha         1 XZL       0.112500
     42 H082       -30.1750   -13.2320    14.8100 h1         1 XZL       0.028200
     43 H081       -29.7560   -12.9710    13.1300 h1         1 XZL       0.028200
     44 H101       -28.1050   -14.6790    16.0720 ha         1 XZL       0.112500
     45 H111       -25.7760   -14.2560    16.7200 ha         1 XZL       0.126000
     46 H211       -19.9770   -10.3940     8.7820 ha         1 XZL       0.152000
     47 H252       -20.3720   -13.9090     4.6270 h1         1 XZL       0.097700
     48 H251       -19.1610   -12.6250     4.6720 h1         1 XZL       0.097700
     49 H272       -21.1160    -9.9170     4.6660 h1         1 XZL       0.106367
     50 H271       -19.6720   -10.1430     3.6300 h1         1 XZL       0.106367
     51 H273       -21.2540    -9.7670     2.9000 h1         1 XZL       0.106367
     52 H301       -22.2750   -13.9340     6.2290 ha         1 XZL       0.110000
     53 H311       -23.0610   -13.3590     8.4750 ha         1 XZL       0.121000
     54 H331       -21.6840   -14.4820    10.2870 ha         1 XZL       0.108000
     55 H341       -22.1200   -15.7290    12.3690 ha         1 XZL       0.096000
     56 H351       -22.8430   -14.5800    14.4060 ha         1 XZL       0.106000
     57 H092       -30.7560   -15.1480    13.6390 hn         1 XZL       0.391000
     58 H091       -29.2820   -15.3290    13.0000 hn         1 XZL       0.391000
     59 H141       -22.9570    -9.8520    12.7000 hn         1 XZL       0.369000
@<TRIPOS>BOND
     1     1     2 1   
     2     1    36 1   
     3     1    37 1   
     4     1    38 1   
     5     2    10 1   
     6     2    30 1   
     7     2    39 1   
     8     3     4 ar  
     9     3     9 ar  
    10     3    30 1   
    11     4     5 ar  
    12     4    40 1   
    13     5     6 ar  
    14     5    41 1   
    15     6     7 1   
    16     6     8 ar  
    17     7    28 1   
    18     7    42 1   
    19     7    43 1   
    20     8     9 ar  
    21     8    44 1   
    22     9    45 1   
    23    10    11 ar  
    24    10    26 ar  
    25    11    23 ar  
    26    11    29 1   
    27    12    13 1   
    28    12    14 2   
    29    12    29 1   
    30    13    31 1   
    31    13    32 1   
    32    14    15 1   
    33    14    23 1   
    34    15    16 ar  
    35    15    22 ar  
    36    16    17 ar  
    37    16    46 1   
    38    17    18 ar  
    39    17    27 1   
    40    18    19 1   
    41    18    21 ar  
    42    19    35 1   
    43    19    47 1   
    44    19    48 1   
    45    20    35 1   
    46    20    49 1   
    47    20    50 1   
    48    20    51 1   
    49    21    22 ar  
    50    21    52 1   
    51    22    53 1   
    52    23    24 ar  
    53    24    25 ar  
    54    24    54 1   
    55    25    26 ar  
    56    25    55 1   
    57    26    56 1   
    58    28    57 1   
    59    28    58 1   
    60    29    59 1   
    61    33    35 2   
    62    34    35 2   
@<TRIPOS>SUBSTRUCTURE
     1 XZL         1 TEMP              0 ****  ****    0 ROOT
