@<TRIPOS>MOLECULE
XZM
  104   111     1     0     0
SMALL
No Charge or Current Charge


@<TRIPOS>ATOM
      1 N1           6.3250   -12.2020    -3.9940 nh         1 XZM      -0.773300
      2 N3           4.0570   -19.8900    -4.2500 nc         1 XZM      -0.601100
      3 C4           7.0570   -14.6750    -3.6870 ca         1 XZM      -0.038300
      4 C5           8.4040   -14.2620    -3.8360 ca         1 XZM      -0.071300
      5 C6           9.4470   -15.2010    -3.8420 ca         1 XZM      -0.080000
      6 C7           5.9320   -13.6090    -3.6790 c6         1 XZM       0.261100
      7 C8           7.6050   -12.0380    -4.7330 c6         1 XZM       0.226800
      8 C10          5.4200   -11.1670    -3.8560 cc         1 XZM       0.720300
      9 C13          1.8260   -19.6800    -3.4830 ca         1 XZM      -0.221000
     10 C15          0.5210   -20.1450    -3.2600 ca         1 XZM      -0.065000
     11 C17          1.1740   -22.2640    -4.2790 ca         1 XZM      -0.105000
     12 C20          4.6280    -9.0740    -4.0040 cd         1 XZM       0.278500
     13 C21          4.6080    -7.5880    -4.3300 c          1 XZM       0.549600
     14 C22          1.4960    -5.1210    -3.4410 ca         1 XZM      -0.393500
     15 C24         -0.9140    -5.2990    -3.5190 ca         1 XZM      -0.239000
     16 C26          0.1600    -4.4660    -1.5130 ca         1 XZM      -0.408500
     17 C28         -3.5650    -5.1600    -2.0960 c3         1 XZM       0.239500
     18 C1           9.1640   -16.5630    -3.7090 ca         1 XZM      -0.106000
     19 C2           7.8380   -16.9950    -3.5720 ca         1 XZM      -0.083000
     20 C3           6.7620   -16.0690    -3.5590 ca         1 XZM      -0.145600
     21 C9           8.7350   -12.7840    -4.0070 c6         1 XZM      -0.051100
     22 C11          5.3380   -16.5870    -3.3940 c          1 XZM       0.618700
     23 O1           4.4490   -15.9150    -2.8960 o          1 XZM      -0.564100
     24 N2           5.1320   -17.8840    -3.8050 ns         1 XZM      -0.397400
     25 C12          3.9940   -18.6490    -3.7530 cd         1 XZM       0.438800
     26 S1           2.4360   -18.0930    -3.0580 ss         1 XZM       0.116800
     27 C14          2.7980   -20.4600    -4.0830 ca         1 XZM       0.121400
     28 C16          0.1960   -21.4530    -3.6650 ca         1 XZM      -0.110000
     29 C18          2.4770   -21.7670    -4.4880 ca         1 XZM      -0.066000
     30 S2           3.8370   -11.3990    -3.1560 ss         1 XZM      -0.060400
     31 C19          3.5400    -9.7050    -3.4180 cc         1 XZM      -0.274000
     32 N4           5.7020    -9.9400    -4.2490 nd         1 XZM      -0.697000
     33 O2           5.5440    -6.9970    -4.8550 o          1 XZM      -0.507100
     34 N5           3.4490    -6.9380    -3.9900 ns         1 XZM      -0.574300
     35 S3           3.0920    -5.3200    -4.2250 sy         1 XZM       1.187300
     36 O3           2.9290    -5.1550    -5.6730 o          1 XZM      -0.513000
     37 O4           4.0950    -4.5600    -3.4740 o          1 XZM      -0.513000
     38 C23          0.3290    -5.4540    -4.1410 ca         1 XZM       0.078000
     39 C25         -1.0100    -4.8230    -2.2020 ca         1 XZM       0.500000
     40 C27          1.4160    -4.6200    -2.1310 ca         1 XZM       0.147000
     41 N6          -2.2560    -4.7170    -1.5960 nu         1 XZM      -0.932200
     42 C29         -3.6750    -6.7140    -2.1220 c3         1 XZM       0.012600
     43 S4          -3.5850    -7.5140    -0.4450 ss         1 XZM      -0.182000
     44 C30         -1.8450    -7.5230    -0.0090 ca         1 XZM      -0.124000
     45 C31         -0.8490    -7.8400    -0.9540 ca         1 XZM      -0.080000
     46 C32          0.5060    -7.8370    -0.5780 ca         1 XZM      -0.125000
     47 C33          0.8710    -7.5310     0.7430 ca         1 XZM      -0.086000
     48 C34         -0.1210    -7.2360     1.6920 ca         1 XZM      -0.125000
     49 C35         -1.4770    -7.2350     1.3170 ca         1 XZM      -0.080000
     50 C36         -4.6570    -4.4590    -1.2520 c3         1 XZM      -0.094400
     51 C37         -6.0980    -4.6920    -1.7640 c3         1 XZM       0.176800
     52 N7          -7.1590    -4.0640    -0.9390 n3         1 XZM      -0.715600
     53 C38         -8.5270    -4.5230    -1.3370 c6         1 XZM       0.126300
     54 C39         -9.6370    -3.8840    -0.4510 c6         1 XZM       0.153600
     55 O5          -9.5350    -2.4410    -0.4820 os         1 XZM      -0.448000
     56 C40         -8.2470    -1.9650    -0.0240 c6         1 XZM       0.153600
     57 C41         -7.1030    -2.5650    -0.8970 c6         1 XZM       0.126300
     58 S5           0.1360    -3.7150     0.1250 sy         1 XZM       1.025500
     59 O6          -1.0990    -4.1090     0.8200 o          1 XZM      -0.480500
     60 O7           1.4470    -3.9490     0.7460 o          1 XZM      -0.480500
     61 C42          0.0100    -1.9130    -0.2310 c3         1 XZM       0.145000
     62 F1          -1.1250    -1.6220    -0.9100 f          1 XZM      -0.098667
     63 F2           1.0550    -1.4840    -0.9790 f          1 XZM      -0.098667
     64 F3           0.0000    -1.1860     0.9130 f          1 XZM      -0.098667
     65 H1          10.4790   -14.8750    -3.9520 ha         1 XZM       0.122000
     66 H2           5.1540   -13.9240    -4.3890 h1         1 XZM       0.070200
     67 H3           5.4790   -13.6310    -2.6770 h1         1 XZM       0.070200
     68 H4           7.8970   -10.9820    -4.8270 h1         1 XZM       0.070700
     69 H5           7.5040   -12.4360    -5.7540 h1         1 XZM       0.070700
     70 H6          -0.2260   -19.5110    -2.7860 ha         1 XZM       0.123000
     71 H7           0.9230   -23.2750    -4.5910 ha         1 XZM       0.117000
     72 H8          -1.8030    -5.5590    -4.0810 ha         1 XZM       0.124000
     73 H9          -3.6890    -4.7990    -3.1270 h1         1 XZM       0.065700
     74 H10          9.9750   -17.2880    -3.7090 ha         1 XZM       0.126000
     75 H11          7.6680   -18.0620    -3.4440 ha         1 XZM       0.125000
     76 H12          9.6670   -12.6610    -4.5730 hc         1 XZM       0.068700
     77 H13          8.9030   -12.3280    -3.0220 hc         1 XZM       0.068700
     78 H14          5.9370   -18.3180    -4.2270 hn         1 XZM       0.347500
     79 H15         -0.8080   -21.8380    -3.5040 ha         1 XZM       0.115000
     80 H16          3.2310   -22.3900    -4.9610 ha         1 XZM       0.130000
     81 H17          2.5820    -9.2990    -3.1230 h4         1 XZM       0.156000
     82 H18          2.6830    -7.4380    -3.5750 hn         1 XZM       0.328500
     83 H19          0.3750    -5.8330    -5.1620 ha         1 XZM       0.133000
     84 H20          2.3300    -4.3410    -1.6020 ha         1 XZM       0.169000
     85 H21         -2.1910    -4.6360    -0.5790 hn         1 XZM       0.529000
     86 H22         -4.6360    -6.9900    -2.5710 h1         1 XZM       0.080700
     87 H23         -2.8990    -7.1340    -2.7690 h1         1 XZM       0.080700
     88 H24         -1.1140    -8.0950    -1.9760 ha         1 XZM       0.126500
     89 H25          1.2720    -8.0750    -1.3110 ha         1 XZM       0.119000
     90 H26          1.9200    -7.5280     1.0320 ha         1 XZM       0.129000
     91 H27          0.1580    -7.0030     2.7170 ha         1 XZM       0.119000
     92 H28         -2.2400    -7.0010     2.0550 ha         1 XZM       0.126500
     93 H29         -4.5920    -4.7840    -0.2080 hc         1 XZM       0.072200
     94 H30         -4.4470    -3.3840    -1.2630 hc         1 XZM       0.072200
     95 H31         -6.2760    -5.7750    -1.7910 h1         1 XZM       0.031700
     96 H32         -6.1670    -4.3300    -2.7990 h1         1 XZM       0.031700
     97 H34         -8.6020    -5.6170    -1.2570 h1         1 XZM       0.041200
     98 H35         -8.7250    -4.2630    -2.3880 h1         1 XZM       0.041200
     99 H36        -10.6290    -4.1830    -0.8180 h1         1 XZM       0.053450
    100 H37         -9.5370    -4.2330     0.5870 h1         1 XZM       0.053450
    101 H38         -8.2260    -0.8680    -0.0830 h1         1 XZM       0.053450
    102 H39         -8.1060    -2.2540     1.0270 h1         1 XZM       0.053450
    103 H40         -6.1470    -2.2200    -0.4800 h1         1 XZM       0.041200
    104 H41         -7.1820    -2.1520    -1.9130 h1         1 XZM       0.041200
@<TRIPOS>BOND
     1     1     6 1   
     2     1     7 1   
     3     1     8 1   
     4     2    25 2   
     5     2    27 1   
     6     3     4 ar  
     7     3     6 1   
     8     3    20 ar  
     9     4     5 ar  
    10     4    21 1   
    11     5    18 ar  
    12     5    65 1   
    13     6    66 1   
    14     6    67 1   
    15     7    21 1   
    16     7    68 1   
    17     7    69 1   
    18     8    30 1   
    19     8    32 2   
    20     9    10 ar  
    21     9    26 1   
    22     9    27 ar  
    23    10    28 ar  
    24    10    70 1   
    25    11    28 ar  
    26    11    29 ar  
    27    11    71 1   
    28    12    13 1   
    29    12    31 2   
    30    12    32 1   
    31    13    33 2   
    32    13    34 1   
    33    14    35 1   
    34    14    38 ar  
    35    14    40 ar  
    36    15    38 ar  
    37    15    39 ar  
    38    15    72 1   
    39    16    39 ar  
    40    16    40 ar  
    41    16    58 1   
    42    17    41 1   
    43    17    42 1   
    44    17    50 1   
    45    17    73 1   
    46    18    19 ar  
    47    18    74 1   
    48    19    20 ar  
    49    19    75 1   
    50    20    22 1   
    51    21    76 1   
    52    21    77 1   
    53    22    23 2   
    54    22    24 1   
    55    24    25 1   
    56    24    78 1   
    57    25    26 1   
    58    27    29 ar  
    59    28    79 1   
    60    29    80 1   
    61    30    31 1   
    62    31    81 1   
    63    34    35 1   
    64    34    82 1   
    65    35    36 2   
    66    35    37 2   
    67    38    83 1   
    68    39    41 1   
    69    40    84 1   
    70    41    85 1   
    71    42    43 1   
    72    42    86 1   
    73    42    87 1   
    74    43    44 1   
    75    44    45 ar  
    76    44    49 ar  
    77    45    46 ar  
    78    45    88 1   
    79    46    47 ar  
    80    46    89 1   
    81    47    48 ar  
    82    47    90 1   
    83    48    49 ar  
    84    48    91 1   
    85    49    92 1   
    86    50    51 1   
    87    50    93 1   
    88    50    94 1   
    89    51    52 1   
    90    51    95 1   
    91    51    96 1   
    92    52    53 1   
    93    52    57 1   
    94    53    54 1   
    95    53    97 1   
    96    53    98 1   
    97    54    55 1   
    98    54    99 1   
    99    54   100 1   
   100    55    56 1   
   101    56    57 1   
   102    56   101 1   
   103    56   102 1   
   104    57   103 1   
   105    57   104 1   
   106    58    59 2   
   107    58    60 2   
   108    58    61 1   
   109    61    62 1   
   110    61    63 1   
   111    61    64 1   
@<TRIPOS>SUBSTRUCTURE
     1 XZM         1 TEMP              0 ****  ****    0 ROOT
