@<TRIPOS>MOLECULE
XZM
  104   111     1     0     0
SMALL
abcg2


@<TRIPOS>ATOM
      1 N1           6.4140   -12.4680    -3.6920 nh         1 XZM      -0.773300
      2 N3           3.6870   -19.2050    -5.0070 nc         1 XZM      -0.601100
      3 C4           7.2790   -14.7890    -3.7500 ca         1 XZM      -0.038300
      4 C5           8.5390   -14.2960    -4.0800 ca         1 XZM      -0.071300
      5 C6           9.5710   -15.1800    -4.3860 ca         1 XZM      -0.080000
      6 C7           6.1470   -13.8600    -3.3890 c6         1 XZM       0.261100
      7 C8           7.4980   -12.1100    -4.5860 c6         1 XZM       0.226800
      8 C10          5.4860   -11.5490    -3.3740 cc         1 XZM       0.720300
      9 C13          1.9440   -19.2640    -3.4450 ca         1 XZM      -0.221000
     10 C15          0.7200   -19.7040    -2.9600 ca         1 XZM      -0.065000
     11 C17          0.5350   -21.1160    -4.9180 ca         1 XZM      -0.105000
     12 C20          4.4440    -9.6220    -3.2400 cd         1 XZM       0.278500
     13 C21          4.3520    -8.1850    -3.5860 c          1 XZM       0.549600
     14 C22          1.3670    -5.6160    -3.0510 ca         1 XZM      -0.393500
     15 C24         -1.0270    -5.7650    -3.1220 ca         1 XZM      -0.239000
     16 C26          0.0590    -4.4580    -1.4130 ca         1 XZM      -0.408500
     17 C28         -3.5990    -5.3850    -1.7880 c3         1 XZM       0.239500
     18 C1           9.3670   -16.5460    -4.3770 ca         1 XZM      -0.106000
     19 C2           8.1090   -17.0450    -4.0760 ca         1 XZM      -0.083000
     20 C3           7.0710   -16.1750    -3.7640 ca         1 XZM      -0.145600
     21 C9           8.7620   -12.8140    -4.1390 c6         1 XZM      -0.051100
     22 C11          5.7470   -16.7520    -3.3960 c          1 XZM       0.618700
     23 O1           5.1280   -16.4380    -2.3970 o          1 XZM      -0.564100
     24 N2           5.2660   -17.6830    -4.2690 ns         1 XZM      -0.397400
     25 C12          4.0810   -18.3570    -4.1240 cd         1 XZM       0.438800
     26 S1           3.0360   -18.1060    -2.7460 ss         1 XZM       0.116800
     27 C14          2.4720   -19.7400    -4.6540 ca         1 XZM       0.121400
     28 C16          0.0210   -20.6350    -3.7100 ca         1 XZM      -0.110000
     29 C18          1.7550   -20.6770    -5.3980 ca         1 XZM      -0.066000
     30 S2           4.1270   -11.9550    -2.3380 ss         1 XZM      -0.060400
     31 C19          3.5930   -10.3270    -2.4510 cc         1 XZM      -0.274000
     32 N4           5.5000   -10.3090    -3.7610 nd         1 XZM      -0.697000
     33 O2           5.2600    -7.5940    -4.1230 o          1 XZM      -0.507100
     34 N5           3.1740    -7.5530    -3.2530 ns         1 XZM      -0.574300
     35 S3           2.9300    -5.9560    -3.7630 sy         1 XZM       1.187300
     36 O3           2.8070    -5.9450    -5.2080 o          1 XZM      -0.513000
     37 O4           3.9340    -5.1300    -3.1240 o          1 XZM      -0.513000
     38 C23          0.1910    -6.0590    -3.6670 ca         1 XZM       0.078000
     39 C25         -1.1540    -4.9810    -1.9470 ca         1 XZM       0.500000
     40 C27          1.2970    -4.8040    -1.9410 ca         1 XZM       0.147000
     41 N6          -2.3490    -4.7520    -1.4000 nu         1 XZM      -0.932200
     42 C29         -3.6150    -6.8770    -1.4390 c3         1 XZM       0.012600
     43 S4          -3.3610    -7.2440     0.3200 ss         1 XZM      -0.182000
     44 C30         -1.5990    -7.1060     0.5020 ca         1 XZM      -0.124000
     45 C31         -0.7200    -7.8370    -0.2940 ca         1 XZM      -0.080000
     46 C32          0.6480    -7.7290    -0.0930 ca         1 XZM      -0.125000
     47 C33          1.1500    -6.9200     0.9180 ca         1 XZM      -0.086000
     48 C34          0.2740    -6.2050     1.7210 ca         1 XZM      -0.125000
     49 C35         -1.0970    -6.2940     1.5130 ca         1 XZM      -0.080000
     50 C36         -4.7330    -4.5840    -1.1560 c3         1 XZM      -0.094400
     51 C37         -6.1160    -5.0740    -1.5590 c3         1 XZM       0.176800
     52 N7          -7.1610    -4.1770    -1.1060 n3         1 XZM      -0.715600
     53 C38         -8.4520    -4.8390    -1.0340 c6         1 XZM       0.126300
     54 C39         -9.5010    -3.8790    -0.5060 c6         1 XZM       0.153600
     55 O5          -9.5960    -2.7220    -1.3060 os         1 XZM      -0.448000
     56 C40         -8.3500    -2.0700    -1.3930 c6         1 XZM       0.153600
     57 C41         -7.2720    -2.9890    -1.9340 c6         1 XZM       0.126300
     58 S5           0.1080    -3.2480    -0.1470 sy         1 XZM       1.025500
     59 O6          -1.0920    -3.2510     0.6770 o          1 XZM      -0.480500
     60 O7           1.4210    -3.2160     0.4640 o          1 XZM      -0.480500
     61 C42         -0.0210    -1.6830    -1.1390 c3         1 XZM       0.145000
     62 F1          -1.1490    -1.6920    -1.8320 f          1 XZM      -0.098667
     63 F2           1.0050    -1.5900    -1.9670 f          1 XZM      -0.098667
     64 F3          -0.0200    -0.6510    -0.3150 f          1 XZM      -0.098667
     65 H1          10.5450   -14.7800    -4.6430 ha         1 XZM       0.122000
     66 H2           5.2320   -14.1810    -3.9020 h1         1 XZM       0.070200
     67 H3           5.9570   -13.9560    -2.3150 h1         1 XZM       0.070200
     68 H4           7.6300   -11.0320    -4.5490 h1         1 XZM       0.070700
     69 H5           7.2540   -12.3800    -5.6200 h1         1 XZM       0.070700
     70 H6           0.3190   -19.3320    -2.0260 ha         1 XZM       0.123000
     71 H7          -0.0320   -21.8410    -5.4870 ha         1 XZM       0.117000
     72 H8          -1.9130    -6.1310    -3.6200 ha         1 XZM       0.124000
     73 H9          -3.7090    -5.3120    -2.8760 h1         1 XZM       0.065700
     74 H10         10.1770   -17.2230    -4.6130 ha         1 XZM       0.126000
     75 H11          7.9440   -18.1150    -4.0720 ha         1 XZM       0.125000
     76 H12          9.5720   -12.5830    -4.8310 hc         1 XZM       0.068700
     77 H13          9.0620   -12.4320    -3.1590 hc         1 XZM       0.068700
     78 H14          5.7710   -17.8780    -5.1230 hn         1 XZM       0.347500
     79 H15         -0.9360   -20.9930    -3.3550 ha         1 XZM       0.115000
     80 H16          2.1550   -21.0450    -6.3340 ha         1 XZM       0.130000
     81 H17          2.7110   -10.0050    -1.9200 h4         1 XZM       0.156000
     82 H18          2.3390    -8.0900    -3.0490 hn         1 XZM       0.328500
     83 H19          0.2280    -6.6480    -4.5750 ha         1 XZM       0.133000
     84 H20          2.2020    -4.4260    -1.4850 ha         1 XZM       0.169000
     85 H21         -2.3710    -4.2620    -0.5180 hn         1 XZM       0.529000
     86 H22         -4.5820    -7.3100    -1.6960 h1         1 XZM       0.080700
     87 H23         -2.8800    -7.4280    -2.0260 h1         1 XZM       0.080700
     88 H24         -1.0970    -8.4900    -1.0710 ha         1 XZM       0.126500
     89 H25          1.3230    -8.2960    -0.7190 ha         1 XZM       0.119000
     90 H26          2.2180    -6.8440     1.0720 ha         1 XZM       0.129000
     91 H27          0.6530    -5.5690     2.5100 ha         1 XZM       0.119000
     92 H28         -1.7760    -5.7200     2.1290 ha         1 XZM       0.126500
     93 H29         -4.6450    -4.6130    -0.0660 hc         1 XZM       0.072200
     94 H30         -4.5970    -3.5430    -1.4580 hc         1 XZM       0.072200
     95 H31         -6.2990    -6.0510    -1.1030 h1         1 XZM       0.031700
     96 H32         -6.1600    -5.2300    -2.6510 h1         1 XZM       0.031700
     97 H34         -8.3850    -5.6930    -0.3560 h1         1 XZM       0.041200
     98 H35         -8.7710    -5.2290    -2.0160 h1         1 XZM       0.041200
     99 H36        -10.4810    -4.3570    -0.5030 h1         1 XZM       0.053450
    100 H37         -9.2530    -3.6100     0.5310 h1         1 XZM       0.053450
    101 H38         -8.4760    -1.2120    -2.0550 h1         1 XZM       0.053450
    102 H39         -8.0440    -1.6920    -0.4060 h1         1 XZM       0.053450
    103 H40         -6.3280    -2.4400    -1.9400 h1         1 XZM       0.041200
    104 H41         -7.4990    -3.2500    -2.9820 h1         1 XZM       0.041200
@<TRIPOS>BOND
     1     1     6 1   
     2     1     7 1   
     3     1     8 1   
     4     2    25 2   
     5     2    27 1   
     6     3     4 ar  
     7     3     6 1   
     8     3    20 ar  
     9     4     5 ar  
    10     4    21 1   
    11     5    18 ar  
    12     5    65 1   
    13     6    66 1   
    14     6    67 1   
    15     7    21 1   
    16     7    68 1   
    17     7    69 1   
    18     8    30 1   
    19     8    32 2   
    20     9    10 ar  
    21     9    26 1   
    22     9    27 ar  
    23    10    28 ar  
    24    10    70 1   
    25    11    28 ar  
    26    11    29 ar  
    27    11    71 1   
    28    12    13 1   
    29    12    31 2   
    30    12    32 1   
    31    13    33 2   
    32    13    34 1   
    33    14    35 1   
    34    14    38 ar  
    35    14    40 ar  
    36    15    38 ar  
    37    15    39 ar  
    38    15    72 1   
    39    16    39 ar  
    40    16    40 ar  
    41    16    58 1   
    42    17    41 1   
    43    17    42 1   
    44    17    50 1   
    45    17    73 1   
    46    18    19 ar  
    47    18    74 1   
    48    19    20 ar  
    49    19    75 1   
    50    20    22 1   
    51    21    76 1   
    52    21    77 1   
    53    22    23 2   
    54    22    24 1   
    55    24    25 1   
    56    24    78 1   
    57    25    26 1   
    58    27    29 ar  
    59    28    79 1   
    60    29    80 1   
    61    30    31 1   
    62    31    81 1   
    63    34    35 1   
    64    34    82 1   
    65    35    36 2   
    66    35    37 2   
    67    38    83 1   
    68    39    41 1   
    69    40    84 1   
    70    41    85 1   
    71    42    43 1   
    72    42    86 1   
    73    42    87 1   
    74    43    44 1   
    75    44    45 ar  
    76    44    49 ar  
    77    45    46 ar  
    78    45    88 1   
    79    46    47 ar  
    80    46    89 1   
    81    47    48 ar  
    82    47    90 1   
    83    48    49 ar  
    84    48    91 1   
    85    49    92 1   
    86    50    51 1   
    87    50    93 1   
    88    50    94 1   
    89    51    52 1   
    90    51    95 1   
    91    51    96 1   
    92    52    53 1   
    93    52    57 1   
    94    53    54 1   
    95    53    97 1   
    96    53    98 1   
    97    54    55 1   
    98    54    99 1   
    99    54   100 1   
   100    55    56 1   
   101    56    57 1   
   102    56   101 1   
   103    56   102 1   
   104    57   103 1   
   105    57   104 1   
   106    58    59 2   
   107    58    60 2   
   108    58    61 1   
   109    61    62 1   
   110    61    63 1   
   111    61    64 1   
@<TRIPOS>SUBSTRUCTURE
     1 XZM         1 TEMP              0 ****  ****    0 ROOT
