@<TRIPOS>MOLECULE
XZN
   65    68     1     0     0
SMALL
No Charge or Current Charge


@<TRIPOS>ATOM
      1 CAA          0.4550    -1.8540     2.2260 c3         1 XZN       0.140900
      2 CAC         -6.3500     0.6580    -0.3340 c3         1 XZN       0.171800
      3 NAD          4.9330     5.0120    -0.5650 n1         1 XZN      -0.459000
      4 Cl1          3.5050    -2.4470    -2.0870 cl         1 XZN      -0.169000
      5 Cl2          7.2180    -1.6420     1.9290 cl         1 XZN      -0.169000
      6 CAH          1.5110     4.4330    -0.8430 ca         1 XZN       0.408900
      7 CAK         -1.1680     2.1380    -0.1430 ca         1 XZN      -0.193000
      8 CAL          0.9720     0.7290     0.9970 ca         1 XZN      -0.166000
      9 CAM         -5.0400     0.0700     0.2330 c3         1 XZN      -0.084400
     10 CAN         -3.8280     0.9810    -0.0260 c3         1 XZN       0.159600
     11 CAO        -11.3870    -2.2580    -0.1700 c3         1 XZN       0.153100
     12 CAQ         -8.8200     0.6280    -0.3710 c6         1 XZN       0.164300
     13 CAP         -7.6110    -1.4950    -0.5350 c6         1 XZN       0.164300
     14 CAS        -10.1190    -0.1420     0.0340 c6         1 XZN       0.163800
     15 CAR         -8.9120    -2.2640    -0.1350 c6         1 XZN       0.163800
     16 NAT          0.2780     3.8880    -0.7900 nb         1 XZN      -0.678000
     17 OAV         -0.5840    -1.0370     1.6550 os         1 XZN      -0.315100
     18 CAX          5.3210    -1.9150    -0.0620 ca         1 XZN       0.092100
     19 CAY          4.2210    -1.4540    -0.8170 ca         1 XZN       0.123500
     20 CAZ          5.2880     0.1620     1.2160 ca         1 XZN      -0.136500
     21 CBA          2.6460     3.8030    -0.3320 ca         1 XZN      -0.164000
     22 CBB          4.1940     0.6170     0.4670 ca         1 XZN       0.306000
     23 CBC         -0.3280     0.1830     1.0490 ca         1 XZN       0.126100
     24 CBD         -1.4040     0.8910     0.4710 ca         1 XZN       0.166100
     25 CBE          2.5080     2.5390     0.2610 ca         1 XZN       0.396000
     26 CBF          0.1230     2.6850    -0.2040 ca         1 XZN       0.317000
     27 CBG          1.2110     1.9690     0.3520 ca         1 XZN      -0.107000
     28 NBH         -7.5730    -0.1020     0.0200 n3         1 XZN      -0.719600
     29 CAJ          3.6680    -0.1910    -0.5540 ca         1 XZN      -0.136500
     30 NBI        -10.1520    -1.5270    -0.5250 n3         1 XZN      -0.717600
     31 C01          6.8270    -3.3000    -1.3700 c3         1 XZN       0.145900
     32 CAI          5.8490    -1.0990     0.9590 ca         1 XZN       0.123500
     33 HAA1         0.9620    -1.3260     3.0440 h1         1 XZN       0.046033
     34 HAA2         0.0300    -2.7800     2.6320 h1         1 XZN       0.046033
     35 HAA3         1.1990    -2.1260     1.4660 h1         1 XZN       0.046033
     36 H011         7.1670    -4.3410    -1.4380 h1         1 XZN       0.043700
     37 H012         6.3860    -3.0200    -2.3350 h1         1 XZN       0.043700
     38 H013         7.7020    -2.6630    -1.1910 h1         1 XZN       0.043700
     39 HAC1        -6.4440     1.6830     0.0510 h1         1 XZN       0.030700
     40 HAC2        -6.2580     0.7340    -1.4260 h1         1 XZN       0.030700
     41 HAM1        -5.1510    -0.0820     1.3130 hc         1 XZN       0.065700
     42 HAM2        -4.8430    -0.9090    -0.2190 hc         1 XZN       0.065700
     43 HAH          1.5810     5.4090    -1.3230 h4         1 XZN       0.030100
     44 HAK         -1.9800     2.7070    -0.5830 ha         1 XZN       0.143000
     45 HAL          1.7950     0.2020     1.4650 ha         1 XZN       0.133000
     46 HAN1        -3.7040     1.1280    -1.1070 h1         1 XZN       0.039700
     47 HAN2        -3.9960     1.9580     0.4480 h1         1 XZN       0.039700
     48 HAO1       -12.2740    -1.7110    -0.5150 h1         1 XZN       0.030700
     49 HAO2       -11.3980    -3.2510    -0.6380 h1         1 XZN       0.030700
     50 HAO3       -11.4670    -2.3900     0.9180 h1         1 XZN       0.030700
     51 HAP1        -6.7520    -2.0790    -0.1770 h1         1 XZN       0.038450
     52 HAP2        -7.5450    -1.4650    -1.6330 h1         1 XZN       0.038450
     53 HAR1        -8.8930    -3.2550    -0.6110 h1         1 XZN       0.037950
     54 HAR2        -8.8970    -2.4300     0.9520 h1         1 XZN       0.037950
     55 HAQ1        -8.8370     0.7910    -1.4590 h1         1 XZN       0.038450
     56 HAQ2        -8.8430     1.6210     0.1020 h1         1 XZN       0.038450
     57 HAS1       -10.1770    -0.1750     1.1320 h1         1 XZN       0.037950
     58 HAS2       -10.9900     0.4310    -0.3160 h1         1 XZN       0.037950
     59 HAU          4.2880     2.4880     1.2530 hn         1 XZN       0.505000
     60 HAJ          2.8280     0.1550    -1.1480 ha         1 XZN       0.145000
     61 HAZ          5.7010     0.7810     2.0070 ha         1 XZN       0.145000
     62 CAG          3.9090     4.4620    -0.4630 cg         1 XZN       0.329000
     63 NAU          3.6500     1.8730     0.7440 nu         1 XZN      -0.985000
     64 OAW         -2.6720     0.3370     0.5350 os         1 XZN      -0.320100
     65 O02          5.8700    -3.1560    -0.3070 os         1 XZN      -0.336100
@<TRIPOS>BOND
     1     1    17 1   
     2     1    33 1   
     3     1    34 1   
     4     1    35 1   
     5     2     9 1   
     6     2    28 1   
     7     2    39 1   
     8     2    40 1   
     9     3    62 3   
    10     4    19 1   
    11     5    32 1   
    12     6    16 ar  
    13     6    21 ar  
    14     6    43 1   
    15     7    24 ar  
    16     7    26 ar  
    17     7    44 1   
    18     8    23 ar  
    19     8    27 ar  
    20     8    45 1   
    21     9    10 1   
    22     9    41 1   
    23     9    42 1   
    24    10    46 1   
    25    10    47 1   
    26    10    64 1   
    27    11    30 1   
    28    11    48 1   
    29    11    49 1   
    30    11    50 1   
    31    12    14 1   
    32    12    28 1   
    33    12    55 1   
    34    12    56 1   
    35    13    15 1   
    36    13    28 1   
    37    13    51 1   
    38    13    52 1   
    39    14    30 1   
    40    14    57 1   
    41    14    58 1   
    42    15    30 1   
    43    15    53 1   
    44    15    54 1   
    45    16    26 ar  
    46    17    23 1   
    47    18    19 ar  
    48    18    32 ar  
    49    18    65 1   
    50    19    29 ar  
    51    20    22 ar  
    52    20    32 ar  
    53    20    61 1   
    54    21    25 ar  
    55    21    62 1   
    56    22    29 ar  
    57    22    63 1   
    58    23    24 ar  
    59    24    64 1   
    60    25    27 ar  
    61    25    63 1   
    62    26    27 ar  
    63    29    60 1   
    64    31    36 1   
    65    31    37 1   
    66    31    38 1   
    67    31    65 1   
    68    59    63 1   
@<TRIPOS>SUBSTRUCTURE
     1 XZN         1 TEMP              0 ****  ****    0 ROOT
