@<TRIPOS>MOLECULE
XZN
   65    68     1     0     0
SMALL
abcg2


@<TRIPOS>ATOM
      1 CAA          0.4820    -1.8080     2.0750 c3         1 XZN       0.140900
      2 CAC         -6.1110     0.4270    -0.5770 c3         1 XZN       0.171800
      3 NAD          4.7490     5.1880    -0.2390 n1         1 XZN      -0.459000
      4 CL1          3.3260    -1.9930    -2.4210 cl         1 XZN      -0.169000
      5 CL2          6.4180    -2.0830     1.9570 cl         1 XZN      -0.169000
      6 CAH          1.3350     4.5480    -0.5790 ca         1 XZN       0.408900
      7 CAK         -1.1840     2.0820    -0.1480 ca         1 XZN      -0.193000
      8 CAL          0.9740     0.7170     0.9830 ca         1 XZN      -0.166000
      9 CAM         -4.8670    -0.1200     0.1150 c3         1 XZN      -0.084400
     10 CAN         -3.6830     0.7860    -0.1420 c3         1 XZN       0.159600
     11 CAO        -11.0960    -2.0700     0.1220 c3         1 XZN       0.153100
     12 CAQ         -8.4980     0.4960    -0.6610 c6         1 XZN       0.164300
     13 CAP         -7.4200    -1.6020    -0.3860 c6         1 XZN       0.164300
     14 CAS         -9.7800    -0.0810    -0.0960 c6         1 XZN       0.163800
     15 CAR         -8.7040    -2.1790     0.1790 c6         1 XZN       0.163800
     16 NAT          0.1780     3.9570    -0.6200 nb         1 XZN      -0.678000
     17 OAV         -0.5680    -1.0470     1.5080 os         1 XZN      -0.315100
     18 CAX          4.8340    -1.9110    -0.2030 ca         1 XZN       0.092100
     19 CAY          3.9380    -1.2140    -1.0100 ca         1 XZN       0.123500
     20 CAZ          4.8960     0.0230     1.2650 ca         1 XZN      -0.136500
     21 CBA          2.5130     3.9240    -0.1170 ca         1 XZN      -0.164000
     22 CBB          3.9980     0.6910     0.4390 ca         1 XZN       0.306000
     23 CBC         -0.2660     0.1440     0.9810 ca         1 XZN       0.126100
     24 CBD         -1.3720     0.8360     0.3870 ca         1 XZN       0.166100
     25 CBE          2.4640     2.6130     0.3510 ca         1 XZN       0.396000
     26 CBF          0.0890     2.6930    -0.1390 ca         1 XZN       0.317000
     27 CBG          1.1910     1.9860     0.3940 ca         1 XZN      -0.107000
     28 NBH         -7.3400    -0.1800    -0.1070 n3         1 XZN      -0.719600
     29 CAJ          3.5250     0.0720    -0.7130 ca         1 XZN      -0.136500
     30 NBI         -9.8610    -1.5010    -0.3670 n3         1 XZN      -0.717600
     31 C01          6.3700    -3.2880    -1.3020 c3         1 XZN       0.145900
     32 CAI          5.3140    -1.2510     0.9270 ca         1 XZN       0.123500
     33 HAA1         0.9290    -1.3020     2.9340 h1         1 XZN       0.046033
     34 HAA2         0.0410    -2.7440     2.4060 h1         1 XZN       0.046033
     35 HAA3         1.2640    -2.0230     1.3420 h1         1 XZN       0.046033
     36 H011         6.5740    -4.3510    -1.4100 h1         1 XZN       0.043700
     37 H012         6.2120    -2.8540    -2.2900 h1         1 XZN       0.043700
     38 H013         7.2320    -2.8080    -0.8340 h1         1 XZN       0.043700
     39 HAC1        -6.1840     1.5020    -0.3800 h1         1 XZN       0.030700
     40 HAC2        -5.9950     0.3230    -1.6700 h1         1 XZN       0.030700
     41 HAM1        -5.0540    -0.1850     1.1900 hc         1 XZN       0.065700
     42 HAM2        -4.6360    -1.1260    -0.2430 hc         1 XZN       0.065700
     43 HAH          1.3910     5.5670    -0.9470 h4         1 XZN       0.030100
     44 HAK         -2.0000     2.6440    -0.5810 ha         1 XZN       0.143000
     45 HAL          1.7950     0.2110     1.4660 ha         1 XZN       0.133000
     46 HAN1        -3.5240     0.9290    -1.2170 h1         1 XZN       0.039700
     47 HAN2        -3.8550     1.7720     0.3030 h1         1 XZN       0.039700
     48 HAO1       -11.9480    -1.5760    -0.3490 h1         1 XZN       0.030700
     49 HAO2       -11.1440    -3.1310    -0.1270 h1         1 XZN       0.030700
     50 HAO3       -11.2150    -1.9770     1.2130 h1         1 XZN       0.030700
     51 HAP1        -6.5790    -2.1190     0.0780 h1         1 XZN       0.038450
     52 HAP2        -7.3710    -1.8060    -1.4700 h1         1 XZN       0.038450
     53 HAR1        -8.7610    -3.2420    -0.0690 h1         1 XZN       0.037950
     54 HAR2        -8.6730    -2.1080     1.2810 h1         1 XZN       0.037950
     55 HAQ1        -8.5240     0.4210    -1.7620 h1         1 XZN       0.038450
     56 HAQ2        -8.4410     1.5590    -0.4150 h1         1 XZN       0.038450
     57 HAS1        -9.8280     0.1300     0.9880 h1         1 XZN       0.037950
     58 HAS2       -10.6340     0.4220    -0.5580 h1         1 XZN       0.037950
     59 HAU          4.3530     2.5860     1.1070 hn         1 XZN       0.505000
     60 HAJ          2.8470     0.5820    -1.3840 ha         1 XZN       0.145000
     61 HAZ          5.2620     0.4950     2.1670 ha         1 XZN       0.145000
     62 CAG          3.7460     4.6210    -0.1850 cg         1 XZN       0.329000
     63 NAU          3.6030     1.9870     0.7920 nu         1 XZN      -0.985000
     64 OAW         -2.5310     0.1820     0.4360 os         1 XZN      -0.320100
     65 O02          5.2020    -3.1740    -0.4880 os         1 XZN      -0.336100
@<TRIPOS>BOND
     1     1    17 1   
     2     1    33 1   
     3     1    34 1   
     4     1    35 1   
     5     2     9 1   
     6     2    28 1   
     7     2    39 1   
     8     2    40 1   
     9     3    62 3   
    10     4    19 1   
    11     5    32 1   
    12     6    16 ar  
    13     6    21 ar  
    14     6    43 1   
    15     7    24 ar  
    16     7    26 ar  
    17     7    44 1   
    18     8    23 ar  
    19     8    27 ar  
    20     8    45 1   
    21     9    10 1   
    22     9    41 1   
    23     9    42 1   
    24    10    46 1   
    25    10    47 1   
    26    10    64 1   
    27    11    30 1   
    28    11    48 1   
    29    11    49 1   
    30    11    50 1   
    31    12    14 1   
    32    12    28 1   
    33    12    55 1   
    34    12    56 1   
    35    13    15 1   
    36    13    28 1   
    37    13    51 1   
    38    13    52 1   
    39    14    30 1   
    40    14    57 1   
    41    14    58 1   
    42    15    30 1   
    43    15    53 1   
    44    15    54 1   
    45    16    26 ar  
    46    17    23 1   
    47    18    19 ar  
    48    18    32 ar  
    49    18    65 1   
    50    19    29 ar  
    51    20    22 ar  
    52    20    32 ar  
    53    20    61 1   
    54    21    25 ar  
    55    21    62 1   
    56    22    29 ar  
    57    22    63 1   
    58    23    24 ar  
    59    24    64 1   
    60    25    27 ar  
    61    25    63 1   
    62    26    27 ar  
    63    29    60 1   
    64    31    36 1   
    65    31    37 1   
    66    31    38 1   
    67    31    65 1   
    68    59    63 1   
@<TRIPOS>SUBSTRUCTURE
     1 XZN         1 TEMP              0 ****  ****    0 ROOT
