@<TRIPOS>MOLECULE
XZO
   22    23     1     0     0
SMALL
No Charge or Current Charge


@<TRIPOS>ATOM
      1 C10         20.3470     8.8200    -2.7130 c          1 XZO       0.572500
      2 C13         19.1010     6.7970    -2.9850 c5         1 XZO      -0.166400
      3 C01         23.0620     9.3000    -3.9450 ca         1 XZO      -0.089500
      4 C02         22.0660     8.4590    -4.4890 ca         1 XZO      -0.027000
      5 C03         22.1740     8.0650    -5.8410 ca         1 XZO      -0.089500
      6 C04         23.2530     8.5040    -6.6270 ca         1 XZO       0.130000
      7 C05         24.2360     9.3390    -6.0780 ca         1 XZO      -0.094000
      8 C06         24.1380     9.7360    -4.7360 ca         1 XZO       0.130000
      9 C12         19.4570     7.8590    -1.9110 c5         1 XZO      -0.166400
     10 C14         20.4070     6.7270    -3.7900 c          1 XZO       0.572500
     11 N09         20.9580     8.0090    -3.6770 n          1 XZO      -0.230000
     12 O11         20.3740    10.0420    -2.6910 o          1 XZO      -0.481000
     13 O15         20.9760     5.7460    -4.2500 o          1 XZO      -0.481000
     14 Cl07        25.3700    10.7800    -4.0400 cl         1 XZO      -0.183000
     15 Cl08        23.3680     8.0070    -8.3100 cl         1 XZO      -0.183000
     16 H1          18.3240     7.2100    -3.6380 hc         1 XZO       0.089200
     17 H2          18.7930     5.8130    -2.6140 hc         1 XZO       0.089200
     18 H4          21.4200     7.4270    -6.2940 ha         1 XZO       0.142000
     19 H5          25.0690     9.6770    -6.6870 ha         1 XZO       0.146000
     20 H6          18.6140     8.3750    -1.4390 hc         1 XZO       0.089200
     21 H7          20.0800     7.3830    -1.1440 hc         1 XZO       0.089200
     22 H3          23.0150     9.6130    -2.9050 ha         1 XZO       0.142000
@<TRIPOS>BOND
     1     1     9 1   
     2     1    11 1   
     3     1    12 2   
     4     2     9 1   
     5     2    10 1   
     6     2    16 1   
     7     2    17 1   
     8     3     4 ar  
     9     3     8 ar  
    10     3    22 1   
    11     4     5 ar  
    12     4    11 1   
    13     5     6 ar  
    14     5    18 1   
    15     6     7 ar  
    16     6    15 1   
    17     7     8 ar  
    18     7    19 1   
    19     8    14 1   
    20     9    20 1   
    21     9    21 1   
    22    10    11 1   
    23    10    13 2   
@<TRIPOS>SUBSTRUCTURE
     1 XZO         1 TEMP              0 ****  ****    0 ROOT
