@<TRIPOS>MOLECULE
XZO
   22    23     1     0     0
SMALL
abcg2


@<TRIPOS>ATOM
      1 C10         20.2060     8.8870    -2.9560 c          1 XZO       0.572500
      2 C13         19.4330     6.6200    -2.6880 c5         1 XZO      -0.166400
      3 C01         23.2200     8.9750    -3.8800 ca         1 XZO      -0.089500
      4 C02         22.0850     8.4670    -4.4960 ca         1 XZO      -0.027000
      5 C03         21.9910     8.3800    -5.8760 ca         1 XZO      -0.089500
      6 C04         23.0640     8.8080    -6.6410 ca         1 XZO       0.130000
      7 C05         24.2100     9.3270    -6.0610 ca         1 XZO      -0.094000
      8 C06         24.2670     9.4050    -4.6780 ca         1 XZO       0.130000
      9 C12         19.1680     8.0550    -2.2510 c5         1 XZO      -0.166400
     10 C14         20.6290     6.6940    -3.5990 c          1 XZO       0.572500
     11 N09         21.0020     8.0270    -3.7020 n          1 XZO      -0.230000
     12 O11         20.3600    10.0790    -2.9130 o          1 XZO      -0.481000
     13 O15         21.1940     5.7920    -4.1590 o          1 XZO      -0.481000
     14 CL07        25.6850    10.0500    -3.9340 cl         1 XZO      -0.183000
     15 CL08        22.9680     8.7020    -8.3610 cl         1 XZO      -0.183000
     16 H1          18.5980     6.1830    -3.2360 hc         1 XZO       0.089200
     17 H2          19.6560     5.9520    -1.8560 hc         1 XZO       0.089200
     18 H4          21.0960     7.9920    -6.3430 ha         1 XZO       0.142000
     19 H5          25.0380     9.6610    -6.6700 ha         1 XZO       0.146000
     20 H6          18.1750     8.4110    -2.5280 hc         1 XZO       0.089200
     21 H7          19.2720     8.1980    -1.1740 hc         1 XZO       0.089200
     22 H3          23.2860     9.0240    -2.8020 ha         1 XZO       0.142000
@<TRIPOS>BOND
     1     1     9 1   
     2     1    11 1   
     3     1    12 2   
     4     2     9 1   
     5     2    10 1   
     6     2    16 1   
     7     2    17 1   
     8     3     4 ar  
     9     3     8 ar  
    10     3    22 1   
    11     4     5 ar  
    12     4    11 1   
    13     5     6 ar  
    14     5    18 1   
    15     6     7 ar  
    16     6    15 1   
    17     7     8 ar  
    18     7    19 1   
    19     8    14 1   
    20     9    20 1   
    21     9    21 1   
    22    10    11 1   
    23    10    13 2   
@<TRIPOS>SUBSTRUCTURE
     1 XZO         1 TEMP              0 ****  ****    0 ROOT
