@<TRIPOS>MOLECULE
XZP
   19    19     1     0     0
SMALL
No Charge or Current Charge


@<TRIPOS>ATOM
      1 O           -1.5630     0.1820    -1.4530 o          1 XZP      -0.737500
      2 C           -1.4970    -0.0180    -0.2480 c          1 XZP       0.733000
      3 CA          -0.1400     0.1400     0.4960 c5         1 XZP      -0.179700
      4 CB           0.9270    -0.8020    -0.1490 c5         1 XZP       0.157500
      5 N            1.0940    -2.0690     0.5720 n8         1 XZP      -0.954200
      6 CG           2.2100     0.0630    -0.1060 c5         1 XZP      -0.120400
      7 CD           1.6500     1.4020    -0.6370 c5         1 XZP      -0.074400
      8 CE           0.4280     1.5930     0.3000 c5         1 XZP      -0.066400
      9 O1          -2.4870    -0.3180     0.4050 o          1 XZP      -0.737500
     10 H1          -0.2840    -0.0700     1.5620 hc         1 XZP       0.027700
     11 H2           0.6770    -1.0370    -1.1960 h1         1 XZP       0.077700
     12 H3           1.9270    -2.5470     0.2120 hn         1 XZP       0.365500
     13 H4           1.3360    -1.8590     1.5450 hn         1 XZP       0.365500
     14 H6           2.6180     0.1640     0.9070 hc         1 XZP       0.015700
     15 H7           3.0050    -0.3350    -0.7480 hc         1 XZP       0.015700
     16 H8           2.3710     2.2220    -0.5530 hc         1 XZP       0.016200
     17 H9           1.3500     1.3300    -1.6890 hc         1 XZP       0.016200
     18 H10         -0.3060     2.2930    -0.1160 hc         1 XZP       0.040200
     19 H11          0.7450     2.0120     1.2630 hc         1 XZP       0.040200
@<TRIPOS>BOND
     1     1     2 1   
     2     2     3 1   
     3     2     9 1   
     4     3     4 1   
     5     3     8 1   
     6     3    10 1   
     7     4     5 1   
     8     4     6 1   
     9     4    11 1   
    10     5    12 1   
    11     5    13 1   
    12     6     7 1   
    13     6    14 1   
    14     6    15 1   
    15     7     8 1   
    16     7    16 1   
    17     7    17 1   
    18     8    18 1   
    19     8    19 1   
@<TRIPOS>SUBSTRUCTURE
     1 XZP         1 TEMP              0 ****  ****    0 ROOT
