@<TRIPOS>MOLECULE
XZP
   19    19     1     0     0
SMALL
bcc


@<TRIPOS>ATOM
      1 O           -1.9150    -0.1810    -0.9860 o          1 XZP      -0.842800
      2 C           -1.5390    -0.1460     0.2050 c          1 XZP       0.943600
      3 CA          -0.0710     0.2300     0.4490 c5         1 XZP      -0.179700
      4 CB           0.9210    -0.7240    -0.2150 c5         1 XZP       0.157500
      5 N            0.8770    -2.0620     0.3470 n8         1 XZP      -0.843800
      6 CG           2.2450     0.0400    -0.1030 c5         1 XZP      -0.120400
      7 CD           1.8690     1.5020    -0.3790 c5         1 XZP      -0.074400
      8 CE           0.3450     1.5920    -0.1160 c5         1 XZP      -0.066400
      9 O1          -2.2470    -0.3880     1.2050 o          1 XZP      -0.842800
     10 H1           0.1320     0.2160     1.5280 hc         1 XZP       0.027700
     11 H2           0.6490    -0.8010    -1.2740 h1         1 XZP       0.077700
     12 H3           1.5700    -2.6440    -0.1080 hn         1 XZP       0.310300
     13 H4           1.1560    -2.0210     1.3210 hn         1 XZP       0.310300
     14 H6           2.6260    -0.0730     0.9170 hc         1 XZP       0.015700
     15 H7           3.0140    -0.3440    -0.7770 hc         1 XZP       0.015700
     16 H8           2.4340     2.1870     0.2540 hc         1 XZP       0.016200
     17 H9           2.0980     1.7780    -1.4090 hc         1 XZP       0.016200
     18 H10         -0.1880     1.7730    -1.0510 hc         1 XZP       0.040200
     19 H11          0.0870     2.4120     0.5570 hc         1 XZP       0.040200
@<TRIPOS>BOND
     1     1     2 1   
     2     2     3 1   
     3     2     9 1   
     4     3     4 1   
     5     3     8 1   
     6     3    10 1   
     7     4     5 1   
     8     4     6 1   
     9     4    11 1   
    10     5    12 1   
    11     5    13 1   
    12     6     7 1   
    13     6    14 1   
    14     6    15 1   
    15     7     8 1   
    16     7    16 1   
    17     7    17 1   
    18     8    18 1   
    19     8    19 1   
@<TRIPOS>SUBSTRUCTURE
     1 XZP         1 TEMP              0 ****  ****    0 ROOT
