@<TRIPOS>MOLECULE
XZQ
  118   126     1     0     0
SMALL
No Charge or Current Charge


@<TRIPOS>ATOM
      1 N2          -8.9050    52.3600    82.9980 ns         1 XZQ      -0.148000
      2 C3          -5.2070    62.4400    80.5860 ca         1 XZQ      -0.078000
      3 C4          -5.7580    61.1350    80.5700 ca         1 XZQ       0.258000
      4 C5          -5.9340    60.5080    79.3000 ca         1 XZQ       0.263000
      5 C6          -5.5740    61.1840    78.1200 ca         1 XZQ      -0.127000
      6 C7          -5.0290    62.4780    78.1560 ca         1 XZQ      -0.073300
      7 C8          -4.6530    63.1700    76.8490 c3         1 XZQ      -0.039800
      8 C9          -5.8290    58.2000    78.3240 c5         1 XZQ       0.454500
      9 C10         -5.7550    56.8960    79.1790 c5         1 XZQ      -0.127400
     10 C11         -5.9030    57.4340    80.6360 c5         1 XZQ      -0.030400
     11 C12         -6.3360    56.3570    81.6510 ca         1 XZQ      -0.096300
     12 C15         -7.0770    54.4840    83.6460 ca         1 XZQ      -0.074000
     13 C16         -7.6150    54.3570    82.3430 ca         1 XZQ      -0.161600
     14 C17         -8.5880    53.2490    81.9760 c          1 XZQ       0.622700
     15 C18         -9.7480    51.2150    83.0530 ca         1 XZQ      -0.016000
     16 C19         -9.8920    50.5760    84.3010 ca         1 XZQ      -0.143500
     17 C20        -10.7050    49.4380    84.4370 ca         1 XZQ      -0.088500
     18 C21        -11.3830    48.9240    83.3210 ca         1 XZQ      -0.141000
     19 C22        -11.2460    49.5480    82.0710 ca         1 XZQ      -0.088500
     20 C23        -10.4330    50.6870    81.9350 ca         1 XZQ      -0.143500
     21 C24         -7.2320    55.2990    81.3580 ca         1 XZQ      -0.046000
     22 C27         -8.9520    58.3000    82.5580 c          1 XZQ       0.740400
     23 C28         -7.0890    59.4330    81.7200 c2         1 XZQ       0.726200
     24 C30         -6.6770    61.8870    83.9140 c3         1 XZQ       0.166300
     25 C31         -6.0520    62.4180    85.2480 c3         1 XZQ       0.125300
     26 C32         -7.0240    63.3590    86.0490 c3         1 XZQ       0.160300
     27 C33         -6.3950    63.8760    87.3800 c3         1 XZQ       0.217600
     28 C34         -7.5880    69.6870    88.7160 c3         1 XZQ       0.226600
     29 C35         -8.3250    70.9470    88.1690 c5         1 XZQ       0.099300
     30 C36         -6.9170    72.8110    87.7740 c5         1 XZQ       0.263300
     31 C38         -4.1280    74.4780    89.3460 ca         1 XZQ      -0.094600
     32 C39         -3.5940    75.6490    89.9230 ca         1 XZQ       0.439900
     33 C40         -5.6030    76.6890    89.5780 ca         1 XZQ       0.159900
     34 C41         -5.4280    74.5090    88.9060 ca         1 XZQ       0.123500
     35 C42         -6.8100    71.8280    86.5590 c5         1 XZQ       0.135300
     36 C43         -8.2420    71.1970    86.6220 c5         1 XZQ       0.146300
     37 C2          -4.8420    63.1110    79.4020 ca         1 XZQ      -0.077300
     38 N1          -6.4490    59.1900    79.2150 nh         1 XZQ      -0.820400
     39 O1          -6.7130    58.0590    77.2560 oh         1 XZQ      -0.655000
     40 C13         -5.8240    56.4520    82.9600 ca         1 XZQ      -0.060000
     41 C14         -6.1900    55.5260    83.9460 ca         1 XZQ      -0.105000
     42 O2          -9.0550    53.1680    80.8450 o          1 XZQ      -0.573100
     43 C25         -7.0040    58.5300    80.4660 c5         1 XZQ       0.056900
     44 C26         -8.4300    57.9730    80.1660 c          1 XZQ       0.589000
     45 O3          -8.8950    57.6610    79.0760 o          1 XZQ      -0.544000
     46 N3          -9.1630    57.8310    81.3040 ns         1 XZQ      -0.493500
     47 O4          -9.6480    57.9470    83.4880 o          1 XZQ      -0.506000
     48 N4          -7.9620    59.2570    82.6540 ne         1 XZQ      -0.751100
     49 N5          -6.1390    60.4570    81.7820 nh         1 XZQ      -0.695400
     50 O5          -7.1090    63.0170    83.1280 oh         1 XZQ      -0.765000
     51 O6          -5.6470    61.3010    86.0650 oh         1 XZQ      -0.673000
     52 O7          -7.4480    64.4700    85.2080 oh         1 XZQ      -0.847000
     53 O8          -7.3900    64.6370    88.0680 os         1 XZQ      -0.603400
     54 P1          -6.9580    65.7470    89.1480 p5         1 XZQ       1.468800
     55 O9          -8.1240    66.2200    89.9480 o          1 XZQ      -0.842000
     56 O10         -5.9030    65.1990    90.0510 o          1 XZQ      -0.842000
     57 O11         -6.3390    66.8650    88.2220 os         1 XZQ      -0.723800
     58 P2          -7.2720    67.5710    87.1690 p5         1 XZQ       1.489800
     59 O12         -6.4510    68.4080    86.2510 o          1 XZQ      -0.841000
     60 O13         -8.1050    66.6170    86.3800 o          1 XZQ      -0.841000
     61 O14         -8.1580    68.5080    88.1300 os         1 XZQ      -0.587400
     62 O15         -7.7320    72.1360    88.7650 os         1 XZQ      -0.465000
     63 N6          -5.6750    73.2630    88.4030 na         1 XZQ      -0.278300
     64 C37         -4.5060    72.5080    88.5620 cc         1 XZQ       0.437700
     65 N7          -3.5280    73.2310    89.1420 nd         1 XZQ      -0.581100
     66 N9          -4.3330    76.7630    90.0460 nb         1 XZQ      -0.321000
     67 N10         -6.1960    75.6120    89.0090 nb         1 XZQ      -0.201000
     68 O16         -6.5010    72.4630    85.2990 oh         1 XZQ      -0.680000
     69 O17         -9.2830    72.1000    86.1750 oh         1 XZQ      -0.723000
     70 H1          -8.4480    52.5650    83.8750 hn         1 XZQ       0.153000
     71 H2          -5.0660    62.9620    81.5240 ha         1 XZQ       0.138000
     72 H3          -5.7250    60.6970    77.1610 ha         1 XZQ       0.126000
     73 H4          -5.2170    64.1010    76.7190 hc         1 XZQ       0.037367
     74 H5          -3.5850    63.4150    76.8240 hc         1 XZQ       0.037367
     75 H6          -4.8620    62.5380    75.9780 hc         1 XZQ       0.037367
     76 H7          -4.8310    58.5110    77.9820 h2         1 XZQ       0.073700
     77 H8          -6.5410    56.1990    78.8780 hc         1 XZQ       0.064200
     78 H9          -4.8040    56.3730    79.0320 hc         1 XZQ       0.064200
     79 H10         -4.9570    57.8990    80.9440 hc         1 XZQ       0.068700
     80 H11         -7.3370    53.7890    84.4410 ha         1 XZQ       0.113000
     81 H12         -9.3720    50.9650    85.1740 ha         1 XZQ       0.126000
     82 H13        -10.8080    48.9550    85.4060 ha         1 XZQ       0.109000
     83 H14        -12.0120    48.0420    83.4240 ha         1 XZQ       0.108000
     84 H15        -11.7690    49.1480    81.2050 ha         1 XZQ       0.109000
     85 H16        -10.3480    51.1380    80.9520 ha         1 XZQ       0.126000
     86 H17         -7.6610    55.2070    80.3650 ha         1 XZQ       0.136000
     87 H21         -7.5540    61.2890    84.1940 h1         1 XZQ       0.069700
     88 H22         -5.1610    63.0050    84.9850 h1         1 XZQ       0.030700
     89 H23         -7.9040    62.7600    86.3230 h1         1 XZQ       0.049700
     90 H24         -6.0810    63.0280    88.0010 h1         1 XZQ       0.011700
     91 H25         -5.5100    64.4860    87.1540 h1         1 XZQ       0.011700
     92 H26         -6.5110    69.7620    88.5170 h1         1 XZQ       0.036700
     93 H27         -7.7150    69.6550    89.8060 h1         1 XZQ       0.036700
     94 H28         -9.3700    70.8740    88.4980 h1         1 XZQ       0.084700
     95 H29         -7.4430    73.7170    87.4470 h2         1 XZQ       0.104700
     96 H31         -6.0610    71.0500    86.7620 h1         1 XZQ       0.070700
     97 H32         -8.2770    70.2540    86.0560 h1         1 XZQ       0.123700
     98 H36         -7.5750    58.1290    77.7240 ho         1 XZQ       0.478000
     99 H37         -5.1380    57.2550    83.2200 ha         1 XZQ       0.125000
    100 H38         -5.7830    55.6190    84.9510 ha         1 XZQ       0.124000
    101 H39        -10.0150    57.3040    81.1980 hn         1 XZQ       0.338500
    102 H41         -7.3130    63.7120    83.8380 ho         1 XZQ       0.576000
    103 H42         -4.8730    61.5840    86.6000 ho         1 XZQ       0.438000
    104 H43         -7.7400    65.2470    85.8160 ho         1 XZQ       0.627000
    105 H46         -4.4320    71.4720    88.2510 h5         1 XZQ       0.091800
    106 H47         -2.0990    76.4690    91.0500 hn         1 XZQ       0.499000
    107 H48         -1.8220    74.8450    90.5140 hn         1 XZQ       0.499000
    108 H49         -5.5940    72.8410    85.3700 ho         1 XZQ       0.495000
    109 H50        -10.1260    71.5900    86.1500 ho         1 XZQ       0.508000
    110 C29         -5.6910    60.9600    83.1180 c3         1 XZQ       0.222800
    111 C1          -4.2570    64.5180    79.4900 c3         1 XZQ      -0.041800
    112 N8          -2.3210    75.7240    90.3950 nv         1 XZQ      -1.078900
    113 H19         -5.4660    60.0890    83.7470 h1         1 XZQ       0.061700
    114 H20         -4.7300    61.4810    83.0210 h1         1 XZQ       0.061700
    115 H33         -4.8840    65.2410    78.9540 hc         1 XZQ       0.042033
    116 H34         -4.1760    64.8650    80.5270 hc         1 XZQ       0.042033
    117 H35         -3.2510    64.5560    79.0560 hc         1 XZQ       0.042033
    118 H30         -6.2110    77.5870    89.6710 h5         1 XZQ       0.033100
@<TRIPOS>BOND
     1     1    14 1   
     2     1    15 1   
     3     1    70 1   
     4     2     3 ar  
     5     2    37 ar  
     6     2    71 1   
     7     3     4 ar  
     8     3    49 1   
     9     4     5 ar  
    10     4    38 1   
    11     5     6 ar  
    12     5    72 1   
    13     6     7 1   
    14     6    37 ar  
    15     7    73 1   
    16     7    74 1   
    17     7    75 1   
    18     8     9 1   
    19     8    38 1   
    20     8    39 1   
    21     8    76 1   
    22     9    10 1   
    23     9    77 1   
    24     9    78 1   
    25    10    11 1   
    26    10    43 1   
    27    10    79 1   
    28    11    21 ar  
    29    11    40 ar  
    30    12    13 ar  
    31    12    41 ar  
    32    12    80 1   
    33    13    14 1   
    34    13    21 ar  
    35    14    42 2   
    36    15    16 ar  
    37    15    20 ar  
    38    16    17 ar  
    39    16    81 1   
    40    17    18 ar  
    41    17    82 1   
    42    18    19 ar  
    43    18    83 1   
    44    19    20 ar  
    45    19    84 1   
    46    20    85 1   
    47    21    86 1   
    48    22    46 1   
    49    22    47 2   
    50    22    48 1   
    51    23    43 1   
    52    23    48 2   
    53    23    49 1   
    54    24    25 1   
    55    24    50 1   
    56    24    87 1   
    57    24   110 1   
    58    25    26 1   
    59    25    51 1   
    60    25    88 1   
    61    26    27 1   
    62    26    52 1   
    63    26    89 1   
    64    27    53 1   
    65    27    90 1   
    66    27    91 1   
    67    28    29 1   
    68    28    61 1   
    69    28    92 1   
    70    28    93 1   
    71    29    36 1   
    72    29    62 1   
    73    29    94 1   
    74    30    35 1   
    75    30    62 1   
    76    30    63 1   
    77    30    95 1   
    78    31    32 ar  
    79    31    34 ar  
    80    31    65 1   
    81    32    66 ar  
    82    32   112 1   
    83    33    66 ar  
    84    33    67 ar  
    85    33   118 1   
    86    34    63 1   
    87    34    67 ar  
    88    35    36 1   
    89    35    68 1   
    90    35    96 1   
    91    36    69 1   
    92    36    97 1   
    93    37   111 1   
    94    38    43 1   
    95    39    98 1   
    96    40    41 ar  
    97    40    99 1   
    98    41   100 1   
    99    43    44 1   
   100    44    45 2   
   101    44    46 1   
   102    46   101 1   
   103    49   110 1   
   104    50   102 1   
   105    51   103 1   
   106    52   104 1   
   107    53    54 1   
   108    54    55 1   
   109    54    56 1   
   110    54    57 1   
   111    57    58 1   
   112    58    59 1   
   113    58    60 1   
   114    58    61 1   
   115    63    64 1   
   116    64    65 2   
   117    64   105 1   
   118    68   108 1   
   119    69   109 1   
   120   106   112 1   
   121   107   112 1   
   122   110   113 1   
   123   110   114 1   
   124   111   115 1   
   125   111   116 1   
   126   111   117 1   
@<TRIPOS>SUBSTRUCTURE
     1 XZQ         1 TEMP              0 ****  ****    0 ROOT
