@<TRIPOS>MOLECULE
XZQ
  118   126     1     0     0
SMALL
abcg2


@<TRIPOS>ATOM
      1 N2          -9.8700    52.6330    82.6980 ns         1 XZQ      -0.148000
      2 C3          -4.0590    61.8050    80.8150 ca         1 XZQ      -0.078000
      3 C4          -5.0380    60.8200    80.8920 ca         1 XZQ       0.258000
      4 C5          -5.7470    60.4860    79.7370 ca         1 XZQ       0.263000
      5 C6          -5.4760    61.1750    78.5570 ca         1 XZQ      -0.127000
      6 C7          -4.4900    62.1480    78.4780 ca         1 XZQ      -0.073300
      7 C8          -4.2320    62.8620    77.1850 c3         1 XZQ      -0.039800
      8 C9          -6.7010    58.5250    78.6170 c5         1 XZQ       0.454500
      9 C10         -6.8580    57.1430    79.2640 c5         1 XZQ      -0.127400
     10 C11         -6.5020    57.3430    80.7310 c5         1 XZQ      -0.030400
     11 C12         -6.9240    56.2670    81.6900 ca         1 XZQ      -0.096300
     12 C15         -7.6530    54.2930    83.5340 ca         1 XZQ      -0.074000
     13 C16         -8.4940    54.5930    82.4650 ca         1 XZQ      -0.161600
     14 C17         -9.8090    53.9140    82.2520 c          1 XZQ       0.622700
     15 C18        -10.9540    51.7500    82.6030 ca         1 XZQ      -0.016000
     16 C19        -10.6660    50.3840    82.5860 ca         1 XZQ      -0.143500
     17 C20        -11.6860    49.4490    82.5210 ca         1 XZQ      -0.088500
     18 C21        -13.0110    49.8590    82.4650 ca         1 XZQ      -0.141000
     19 C22        -13.2980    51.2170    82.4870 ca         1 XZQ      -0.088500
     20 C23        -12.2860    52.1650    82.5590 ca         1 XZQ      -0.143500
     21 C24         -8.1290    55.5860    81.5610 ca         1 XZQ      -0.046000
     22 C27         -8.0920    58.4580    83.5150 c          1 XZQ       0.740400
     23 C28         -6.4300    59.3830    82.2070 c2         1 XZQ       0.726200
     24 C30         -5.2950    61.6230    84.1580 c3         1 XZQ       0.166300
     25 C31         -4.2890    62.1910    85.1760 c3         1 XZQ       0.125300
     26 C32         -4.9800    63.1730    86.1360 c3         1 XZQ       0.160300
     27 C33         -4.0390    63.7420    87.1920 c3         1 XZQ       0.217600
     28 C34         -6.7560    69.2870    88.6030 c3         1 XZQ       0.226600
     29 C35         -7.9980    70.0940    88.2400 c5         1 XZQ       0.099300
     30 C36         -7.8350    72.3920    87.9260 c5         1 XZQ       0.263300
     31 C38         -6.0020    75.2730    89.0440 ca         1 XZQ      -0.094600
     32 C39         -6.0170    76.6560    89.3050 ca         1 XZQ       0.439900
     33 C40         -8.2100    76.6640    88.6110 ca         1 XZQ       0.159900
     34 C41         -7.1810    74.7260    88.5640 ca         1 XZQ       0.123500
     35 C42         -7.4050    71.6990    86.6260 c5         1 XZQ       0.135300
     36 C43         -8.1590    70.3850    86.7430 c5         1 XZQ       0.146300
     37 C2          -3.7600    62.4610    79.6290 ca         1 XZQ      -0.077300
     38 N1          -6.6910    59.4660    79.7380 nh         1 XZQ      -0.820400
     39 O1          -7.6600    58.8180    77.6510 oh         1 XZQ      -0.655000
     40 C13         -6.0880    55.9420    82.7570 ca         1 XZQ      -0.060000
     41 C14         -6.4530    54.9710    83.6760 ca         1 XZQ      -0.105000
     42 O2         -10.7320    54.4860    81.7000 o          1 XZQ      -0.573100
     43 C25         -7.0440    58.8140    80.9640 c5         1 XZQ       0.056900
     44 C26         -8.5600    58.7610    81.1420 c          1 XZQ       0.589000
     45 O3          -9.3310    58.8510    80.2120 o          1 XZQ      -0.544000
     46 N3          -8.9560    58.5160    82.4130 ns         1 XZQ      -0.493500
     47 O4          -8.4980    58.0030    84.5610 o          1 XZQ      -0.506000
     48 N4          -6.8610    59.0190    83.3740 ne         1 XZQ      -0.751100
     49 N5          -5.3610    60.1770    82.1120 nh         1 XZQ      -0.695400
     50 O5          -5.7680    62.6060    83.2750 oh         1 XZQ      -0.765000
     51 O6          -3.7590    61.0980    85.8960 oh         1 XZQ      -0.673000
     52 O7          -5.5530    64.1940    85.3540 oh         1 XZQ      -0.847000
     53 O8          -4.8280    64.2750    88.2400 os         1 XZQ      -0.603400
     54 P1          -4.4410    65.6440    89.0440 p5         1 XZQ       1.468800
     55 O9          -5.4760    65.7740    90.1130 o          1 XZQ      -0.842000
     56 O10         -2.9740    65.6850    89.3290 o          1 XZQ      -0.842000
     57 O11         -4.6740    66.8100    87.8860 os         1 XZQ      -0.723800
     58 P2          -6.0210    67.2330    87.0670 p5         1 XZQ       1.489800
     59 O12         -5.5770    68.2230    86.0410 o          1 XZQ      -0.841000
     60 O13         -6.8100    66.0030    86.6890 o          1 XZQ      -0.841000
     61 O14         -6.9540    67.9480    88.2010 os         1 XZQ      -0.587400
     62 O15         -7.9300    71.3720    88.8810 os         1 XZQ      -0.465000
     63 N6          -6.9140    73.3970    88.3910 na         1 XZQ      -0.278300
     64 C37         -5.6120    73.2150    88.7760 cc         1 XZQ       0.437700
     65 N7          -5.0340    74.3090    89.1720 nd         1 XZQ      -0.581100
     66 N9          -7.1520    77.3250    89.0730 nb         1 XZQ      -0.321000
     67 N10         -8.3170    75.3770    88.3280 nb         1 XZQ      -0.201000
     68 O16         -7.7200    72.4050    85.4690 oh         1 XZQ      -0.680000
     69 O17         -9.4990    70.6270    86.3940 oh         1 XZQ      -0.723000
     70 H1          -8.9990    52.2080    82.9780 hn         1 XZQ       0.153000
     71 H2          -3.5050    62.0970    81.6950 ha         1 XZQ       0.138000
     72 H3          -6.0610    60.9470    77.6750 ha         1 XZQ       0.126000
     73 H4          -4.3840    63.9390    77.2880 hc         1 XZQ       0.037367
     74 H5          -3.2030    62.7230    76.8470 hc         1 XZQ       0.037367
     75 H6          -4.8920    62.5070    76.3950 hc         1 XZQ       0.037367
     76 H7          -5.7400    58.5920    78.1000 h2         1 XZQ       0.073700
     77 H8          -7.8780    56.7780    79.1320 hc         1 XZQ       0.064200
     78 H9          -6.1960    56.4150    78.7970 hc         1 XZQ       0.064200
     79 H10         -5.4150    57.4490    80.8050 hc         1 XZQ       0.068700
     80 H11         -7.9290    53.5520    84.2740 ha         1 XZQ       0.113000
     81 H12         -9.6350    50.0520    82.6230 ha         1 XZQ       0.126000
     82 H13        -11.4400    48.3950    82.5090 ha         1 XZQ       0.109000
     83 H14        -13.8090    49.1310    82.4090 ha         1 XZQ       0.108000
     84 H15        -14.3260    51.5530    82.4540 ha         1 XZQ       0.109000
     85 H16        -12.5440    53.2110    82.5900 ha         1 XZQ       0.126000
     86 H17         -8.8030    55.8070    80.7440 ha         1 XZQ       0.136000
     87 H21         -6.1260    61.1840    84.7300 h1         1 XZQ       0.069700
     88 H22         -3.5010    62.7190    84.6170 h1         1 XZQ       0.030700
     89 H23         -5.7560    62.5960    86.6670 h1         1 XZQ       0.049700
     90 H24         -3.3900    62.9610    87.5970 h1         1 XZQ       0.011700
     91 H25         -3.3930    64.4960    86.7270 h1         1 XZQ       0.011700
     92 H26         -5.8600    69.7280    88.1550 h1         1 XZQ       0.036700
     93 H27         -6.6210    69.3110    89.6880 h1         1 XZQ       0.036700
     94 H28         -8.8760    69.5600    88.6210 h1         1 XZQ       0.084700
     95 H29         -8.7930    72.9030    87.7790 h2         1 XZQ       0.104700
     96 H31         -6.3300    71.4750    86.6800 h1         1 XZQ       0.070700
     97 H32         -7.7100    69.6020    86.1240 h1         1 XZQ       0.123700
     98 H36         -8.5210    58.8380    78.0910 ho         1 XZQ       0.478000
     99 H37         -5.1420    56.4570    82.8700 ha         1 XZQ       0.125000
    100 H38         -5.7990    54.7420    84.5070 ha         1 XZQ       0.124000
    101 H39         -9.9320    58.2970    82.5770 hn         1 XZQ       0.338500
    102 H41         -5.9340    63.3910    83.8290 ho         1 XZQ       0.576000
    103 H42         -2.8280    61.2580    86.0730 ho         1 XZQ       0.438000
    104 H43         -6.0590    64.8510    85.9120 ho         1 XZQ       0.627000
    105 H46         -5.1450    72.2420    88.7480 h5         1 XZQ       0.091800
    106 H47         -5.0140    78.2990    89.9640 hn         1 XZQ       0.499000
    107 H48         -4.0960    76.8370    89.9780 hn         1 XZQ       0.499000
    108 H49         -7.0710    73.1060    85.3510 ho         1 XZQ       0.495000
    109 H50         -9.9890    69.8040    86.4820 ho         1 XZQ       0.508000
    110 C29         -4.6410    60.5000    83.3440 c3         1 XZQ       0.222800
    111 C1          -2.6870    63.5080    79.5960 c3         1 XZQ      -0.041800
    112 N8          -4.9530    77.3160    89.7640 nv         1 XZQ      -1.078900
    113 H19         -4.5970    59.5930    83.9390 h1         1 XZQ       0.061700
    114 H20         -3.6160    60.7490    83.0760 h1         1 XZQ       0.061700
    115 H33         -3.0820    64.4810    79.2940 hc         1 XZQ       0.042033
    116 H34         -2.2200    63.6290    80.5720 hc         1 XZQ       0.042033
    117 H35         -1.9010    63.2550    78.8810 hc         1 XZQ       0.042033
    118 H30         -9.0990    77.2640    88.4460 h5         1 XZQ       0.033100
@<TRIPOS>BOND
     1     1    14 1   
     2     1    15 1   
     3     1    70 1   
     4     2     3 ar  
     5     2    37 ar  
     6     2    71 1   
     7     3     4 ar  
     8     3    49 1   
     9     4     5 ar  
    10     4    38 1   
    11     5     6 ar  
    12     5    72 1   
    13     6     7 1   
    14     6    37 ar  
    15     7    73 1   
    16     7    74 1   
    17     7    75 1   
    18     8     9 1   
    19     8    38 1   
    20     8    39 1   
    21     8    76 1   
    22     9    10 1   
    23     9    77 1   
    24     9    78 1   
    25    10    11 1   
    26    10    43 1   
    27    10    79 1   
    28    11    21 ar  
    29    11    40 ar  
    30    12    13 ar  
    31    12    41 ar  
    32    12    80 1   
    33    13    14 1   
    34    13    21 ar  
    35    14    42 2   
    36    15    16 ar  
    37    15    20 ar  
    38    16    17 ar  
    39    16    81 1   
    40    17    18 ar  
    41    17    82 1   
    42    18    19 ar  
    43    18    83 1   
    44    19    20 ar  
    45    19    84 1   
    46    20    85 1   
    47    21    86 1   
    48    22    46 1   
    49    22    47 2   
    50    22    48 1   
    51    23    43 1   
    52    23    48 2   
    53    23    49 1   
    54    24    25 1   
    55    24    50 1   
    56    24    87 1   
    57    24   110 1   
    58    25    26 1   
    59    25    51 1   
    60    25    88 1   
    61    26    27 1   
    62    26    52 1   
    63    26    89 1   
    64    27    53 1   
    65    27    90 1   
    66    27    91 1   
    67    28    29 1   
    68    28    61 1   
    69    28    92 1   
    70    28    93 1   
    71    29    36 1   
    72    29    62 1   
    73    29    94 1   
    74    30    35 1   
    75    30    62 1   
    76    30    63 1   
    77    30    95 1   
    78    31    32 ar  
    79    31    34 ar  
    80    31    65 1   
    81    32    66 ar  
    82    32   112 1   
    83    33    66 ar  
    84    33    67 ar  
    85    33   118 1   
    86    34    63 1   
    87    34    67 ar  
    88    35    36 1   
    89    35    68 1   
    90    35    96 1   
    91    36    69 1   
    92    36    97 1   
    93    37   111 1   
    94    38    43 1   
    95    39    98 1   
    96    40    41 ar  
    97    40    99 1   
    98    41   100 1   
    99    43    44 1   
   100    44    45 2   
   101    44    46 1   
   102    46   101 1   
   103    49   110 1   
   104    50   102 1   
   105    51   103 1   
   106    52   104 1   
   107    53    54 1   
   108    54    55 1   
   109    54    56 1   
   110    54    57 1   
   111    57    58 1   
   112    58    59 1   
   113    58    60 1   
   114    58    61 1   
   115    63    64 1   
   116    64    65 2   
   117    64   105 1   
   118    68   108 1   
   119    69   109 1   
   120   106   112 1   
   121   107   112 1   
   122   110   113 1   
   123   110   114 1   
   124   111   115 1   
   125   111   116 1   
   126   111   117 1   
@<TRIPOS>SUBSTRUCTURE
     1 XZQ         1 TEMP              0 ****  ****    0 ROOT
