@<TRIPOS>MOLECULE
XZR
   62    65     1     0     0
SMALL
abcg2


@<TRIPOS>ATOM
      1 C25        -22.6650   -15.0500    11.6750 ca         1 XZR      -0.161000
      2 C24        -22.3080   -14.2580    10.6030 ca         1 XZR      -0.069000
      3 C26        -23.1400   -14.4810    12.8680 ca         1 XZR      -0.111000
      4 C23        -22.4490   -12.8680    10.7170 ca         1 XZR      -0.086800
      5 C22        -22.0760   -12.8090     7.5820 ca         1 XZR      -0.117000
      6 C21        -21.4540   -12.9980     6.3610 ca         1 XZR      -0.086000
      7 C18        -20.2960    -9.9340     3.7370 c3         1 XZR      -0.323100
      8 C15        -20.2940   -12.3090     6.0180 ca         1 XZR      -0.116300
      9 C11        -21.5600   -11.9110     8.5170 ca         1 XZR       0.084200
     10 C12        -20.3980   -11.2170     8.1870 ca         1 XZR      -0.063000
     11 C13        -19.7860   -11.4170     6.9630 ca         1 XZR       0.129000
     12 C10        -22.1680   -11.7670     9.8410 cc         1 XZR      -0.159400
     13 C01        -22.4770   -11.9460    15.0940 c3         1 XZR      -0.084100
     14 C02        -23.6770   -12.5130    14.3500 c3         1 XZR       0.219600
     15 C03        -23.2690   -13.1150    13.0290 ca         1 XZR      -0.137300
     16 C04        -22.9320   -12.3210    11.9250 ca         1 XZR      -0.051200
     17 C06        -22.5030   -10.6200    10.5290 cd         1 XZR      -0.055300
     18 C07        -22.5230    -9.1590    10.1380 c          1 XZR       0.723200
     19 C29        -26.6220   -12.7570    14.6200 ca         1 XZR      -0.113300
     20 C30        -27.0410   -14.0220    14.2250 ca         1 XZR      -0.098000
     21 C31        -27.7440   -14.8470    15.0930 ca         1 XZR      -0.106000
     22 C32        -28.0330   -14.4320    16.3900 ca         1 XZR      -0.095300
     23 C33        -28.7670   -15.3310    17.3530 c3         1 XZR       0.199100
     24 C35        -27.6100   -13.1650    16.7850 ca         1 XZR      -0.106000
     25 C36        -26.9130   -12.3390    15.9160 ca         1 XZR      -0.098000
     26 N05        -22.9560   -10.9700    11.7680 na         1 XZR      -0.184700
     27 N34        -29.8840   -16.0080    16.7160 n8         1 XZR      -0.997200
     28 O08        -22.1950    -8.8840     8.9730 o          1 XZR      -0.698500
     29 O09        -22.8890    -8.3800    11.0400 o          1 XZR      -0.698500
     30 O19        -21.8910   -11.9940     3.3620 o          1 XZR      -0.537500
     31 O20        -19.7070   -11.9420     2.1260 o          1 XZR      -0.537500
     32 O27        -24.6090   -11.4600    14.1860 os         1 XZR      -0.455000
     33 S17        -20.4680   -11.6610     3.3420 s6         1 XZR       1.063000
     34 CL14       -18.3290   -10.5280     6.6400 cl         1 XZR      -0.240000
     35 H251       -22.5740   -16.1260    11.6020 ha         1 XZR       0.094000
     36 H241       -21.9300   -14.7060     9.6930 ha         1 XZR       0.106000
     37 H261       -23.4040   -15.1320    13.6940 ha         1 XZR       0.093000
     38 H221       -22.9800   -13.3590     7.8090 ha         1 XZR       0.120000
     39 H211       -21.8730   -13.7060     5.6570 ha         1 XZR       0.112000
     40 H281       -26.4190   -10.9330    13.5090 h1         1 XZR       0.062200
     41 H282       -25.7640   -12.3530    12.7020 h1         1 XZR       0.062200
     42 H181       -20.7900    -9.7170     4.6810 h1         1 XZR       0.107367
     43 H183       -19.2430    -9.6680     3.7820 h1         1 XZR       0.107367
     44 H182       -20.7850    -9.3840     2.9330 h1         1 XZR       0.107367
     45 H161       -19.7350   -13.5930     4.3910 h1         1 XZR       0.099200
     46 H162       -18.6000   -12.2680     4.6560 h1         1 XZR       0.099200
     47 H121       -19.9600   -10.5340     8.8990 ha         1 XZR       0.150000
     48 H012       -22.7800   -11.5310    16.0560 hc         1 XZR       0.042367
     49 H013       -21.7530   -12.7380    15.2820 hc         1 XZR       0.042367
     50 H011       -21.9790   -11.1630    14.5220 hc         1 XZR       0.042367
     51 H021       -24.1140   -13.3100    14.9660 h1         1 XZR       0.035700
     52 H301       -26.8170   -14.3710    13.2230 ha         1 XZR       0.120000
     53 H311       -28.0680   -15.8240    14.7590 ha         1 XZR       0.112500
     54 H331       -28.0750   -16.0980    17.7130 h1         1 XZR       0.029700
     55 H332       -29.0480   -14.7430    18.2370 h1         1 XZR       0.029700
     56 H351       -27.8340   -12.8150    17.7860 ha         1 XZR       0.112500
     57 H361       -26.6010   -11.3570    16.2510 ha         1 XZR       0.120000
     58 H051       -23.3020   -10.2940    12.4300 hn         1 XZR       0.381000
     59 H341       -30.2880   -16.6720    17.3630 hn         1 XZR       0.392000
     60 H342       -30.6140   -15.3370    16.5110 hn         1 XZR       0.392000
     61 C16        -19.6530   -12.5460     4.6910 c3         1 XZR      -0.207100
     62 C28        -25.8640   -11.8590    13.6770 c3         1 XZR       0.199900
@<TRIPOS>BOND
     1     1     2 ar  
     2     1     3 ar  
     3     1    35 1   
     4     2     4 ar  
     5     2    36 1   
     6     3    15 ar  
     7     3    37 1   
     8     4    12 1   
     9     4    16 ar  
    10     5     6 ar  
    11     5     9 ar  
    12     5    38 1   
    13     6     8 ar  
    14     6    39 1   
    15     7    33 1   
    16     7    42 1   
    17     7    43 1   
    18     7    44 1   
    19     8    11 ar  
    20     8    61 1   
    21     9    10 ar  
    22     9    12 1   
    23    10    11 ar  
    24    10    47 1   
    25    11    34 1   
    26    12    17 2   
    27    13    14 1   
    28    13    48 1   
    29    13    49 1   
    30    13    50 1   
    31    14    15 1   
    32    14    32 1   
    33    14    51 1   
    34    15    16 ar  
    35    16    26 1   
    36    17    18 1   
    37    17    26 1   
    38    18    28 1   
    39    18    29 1   
    40    19    20 ar  
    41    19    25 ar  
    42    19    62 1   
    43    20    21 ar  
    44    20    52 1   
    45    21    22 ar  
    46    21    53 1   
    47    22    23 1   
    48    22    24 ar  
    49    23    27 1   
    50    23    54 1   
    51    23    55 1   
    52    24    25 ar  
    53    24    56 1   
    54    25    57 1   
    55    26    58 1   
    56    27    59 1   
    57    27    60 1   
    58    30    33 2   
    59    31    33 2   
    60    32    62 1   
    61    33    61 1   
    62    40    62 1   
    63    41    62 1   
    64    45    61 1   
    65    46    61 1   
@<TRIPOS>SUBSTRUCTURE
     1 XZR         1 TEMP              0 ****  ****    0 ROOT
