@<TRIPOS>MOLECULE
XZR
   62    65     1     0     0
SMALL
No Charge or Current Charge


@<TRIPOS>ATOM
      1 C25        -22.5620   -15.0410    11.9170 ca         1 XZR      -0.161000
      2 C24        -22.1910   -14.2630    10.8020 ca         1 XZR      -0.069000
      3 C26        -23.0410   -14.4190    13.0940 ca         1 XZR      -0.111000
      4 C23        -22.3200   -12.8730    10.9080 ca         1 XZR      -0.086800
      5 C22        -22.2760   -12.7160     7.6560 ca         1 XZR      -0.117000
      6 C21        -21.7810   -12.9120     6.3560 ca         1 XZR      -0.086000
      7 C18        -20.2450    -9.8510     3.9270 c3         1 XZR      -0.323100
      8 C15        -20.5210   -12.4030     5.9860 ca         1 XZR      -0.116300
      9 C11        -21.5230   -12.0030     8.6050 ca         1 XZR       0.084200
     10 C12        -20.2560   -11.5110     8.2470 ca         1 XZR      -0.063000
     11 C13        -19.7560   -11.7020     6.9490 ca         1 XZR       0.129000
     12 C10        -22.0310   -11.8380     9.9640 cc         1 XZR      -0.159400
     13 C01        -22.5480   -11.6460    15.2450 c3         1 XZR      -0.084100
     14 C02        -23.6700   -12.3570    14.4650 c3         1 XZR       0.219600
     15 C03        -23.1560   -13.0110    13.1760 ca         1 XZR      -0.137300
     16 C04        -22.7800   -12.2640    12.0410 ca         1 XZR      -0.051200
     17 C06        -22.3650   -10.6110    10.5540 cd         1 XZR      -0.055300
     18 C07        -22.3060    -9.2380     9.9400 c          1 XZR       0.723200
     19 C29        -26.6100   -12.8190    14.4590 ca         1 XZR      -0.113300
     20 C30        -26.6620   -14.1940    14.1560 ca         1 XZR      -0.098000
     21 C31        -27.3270   -15.0850    15.0160 ca         1 XZR      -0.106000
     22 C32        -27.9500   -14.6140    16.1880 ca         1 XZR      -0.095300
     23 C33        -28.6630   -15.5820    17.1240 c3         1 XZR       0.199100
     24 C35        -27.8980   -13.2390    16.4900 ca         1 XZR      -0.106000
     25 C36        -27.2320   -12.3470    15.6310 ca         1 XZR      -0.098000
     26 N05        -22.8200   -10.8870    11.8710 na         1 XZR      -0.184700
     27 N34        -30.0650   -15.7900    16.7220 n8         1 XZR      -0.997200
     28 O08        -21.9500    -9.0890     8.7800 o          1 XZR      -0.698500
     29 O09        -22.6430    -8.2950    10.6450 o          1 XZR      -0.698500
     30 O19        -22.1250   -11.5920     3.2950 o          1 XZR      -0.537500
     31 O20        -19.9110   -11.6940     2.0690 o          1 XZR      -0.537500
     32 O27        -24.6780   -11.3650    14.1680 os         1 XZR      -0.455000
     33 S17        -20.6600   -11.4830     3.3150 s6         1 XZR       1.063000
     34 Cl14       -18.1600   -11.0550     6.5650 cl         1 XZR      -0.240000
     35 H251       -22.4790   -16.1240    11.8730 ha         1 XZR       0.094000
     36 H241       -21.8200   -14.7270     9.8920 ha         1 XZR       0.106000
     37 H261       -23.3210   -15.0370    13.9450 ha         1 XZR       0.093000
     38 H221       -23.2480   -13.1170     7.9310 ha         1 XZR       0.120000
     39 H211       -22.3820   -13.4620     5.6350 ha         1 XZR       0.112000
     40 H281       -26.5490   -11.0090    13.3050 h1         1 XZR       0.062200
     41 H282       -25.6530   -12.3430    12.5770 h1         1 XZR       0.062200
     42 H181       -20.7330    -9.7250     4.8990 h1         1 XZR       0.107367
     43 H183       -19.1560    -9.7960     4.0180 h1         1 XZR       0.107367
     44 H182       -20.6180    -9.1220     3.2000 h1         1 XZR       0.107367
     45 H161       -20.3170   -13.6340     4.2100 h1         1 XZR       0.099200
     46 H162       -18.9270   -12.5740     4.4950 h1         1 XZR       0.099200
     47 H121       -19.6600   -10.9770     8.9800 ha         1 XZR       0.150000
     48 H012       -22.9420   -11.2160    16.1730 hc         1 XZR       0.042367
     49 H013       -21.7590   -12.3590    15.5070 hc         1 XZR       0.042367
     50 H011       -22.1000   -10.8410    14.6520 hc         1 XZR       0.042367
     51 H021       -24.0840   -13.1340    15.1210 h1         1 XZR       0.035700
     52 H301       -26.1830   -14.5740    13.2570 ha         1 XZR       0.120000
     53 H311       -27.3600   -16.1450    14.7710 ha         1 XZR       0.112500
     54 H331       -28.1460   -16.5520    17.1220 h1         1 XZR       0.029700
     55 H332       -28.6440   -15.1880    18.1500 h1         1 XZR       0.029700
     56 H351       -28.3720   -12.8600    17.3930 ha         1 XZR       0.112500
     57 H361       -27.1940   -11.2880    15.8780 ha         1 XZR       0.120000
     58 H051       -23.1700   -10.2060    12.5370 hn         1 XZR       0.381000
     59 H341       -30.5310   -16.3670    17.4320 hn         1 XZR       0.392000
     60 H342       -30.5560   -14.8900    16.7770 hn         1 XZR       0.392000
     61 C16        -20.0180   -12.6390     4.5560 c3         1 XZR      -0.207100
     62 C28        -25.8810   -11.8510    13.5310 c3         1 XZR       0.199900
@<TRIPOS>BOND
     1     1     2 ar  
     2     1     3 ar  
     3     1    35 1   
     4     2     4 ar  
     5     2    36 1   
     6     3    15 ar  
     7     3    37 1   
     8     4    12 1   
     9     4    16 ar  
    10     5     6 ar  
    11     5     9 ar  
    12     5    38 1   
    13     6     8 ar  
    14     6    39 1   
    15     7    33 1   
    16     7    42 1   
    17     7    43 1   
    18     7    44 1   
    19     8    11 ar  
    20     8    61 1   
    21     9    10 ar  
    22     9    12 1   
    23    10    11 ar  
    24    10    47 1   
    25    11    34 1   
    26    12    17 2   
    27    13    14 1   
    28    13    48 1   
    29    13    49 1   
    30    13    50 1   
    31    14    15 1   
    32    14    32 1   
    33    14    51 1   
    34    15    16 ar  
    35    16    26 1   
    36    17    18 1   
    37    17    26 1   
    38    18    28 1   
    39    18    29 1   
    40    19    20 ar  
    41    19    25 ar  
    42    19    62 1   
    43    20    21 ar  
    44    20    52 1   
    45    21    22 ar  
    46    21    53 1   
    47    22    23 1   
    48    22    24 ar  
    49    23    27 1   
    50    23    54 1   
    51    23    55 1   
    52    24    25 ar  
    53    24    56 1   
    54    25    57 1   
    55    26    58 1   
    56    27    59 1   
    57    27    60 1   
    58    30    33 2   
    59    31    33 2   
    60    32    62 1   
    61    33    61 1   
    62    40    62 1   
    63    41    62 1   
    64    45    61 1   
    65    46    61 1   
@<TRIPOS>SUBSTRUCTURE
     1 XZR         1 TEMP              0 ****  ****    0 ROOT
