@<TRIPOS>MOLECULE
XZS
   72    75     1     0     0
SMALL
No Charge or Current Charge


@<TRIPOS>ATOM
      1 C10         57.2870   -17.8080   -14.6220 ca         1 XZS      -0.213500
      2 C13         55.3460   -16.6740   -13.6440 ca         1 XZS      -0.171300
      3 C17         54.6410   -15.4000   -13.1140 c6         1 XZS       0.003600
      4 C21         53.6710   -13.0730   -13.6570 c6         1 XZS       0.167300
      5 C22         54.4690   -14.2970   -14.1920 c6         1 XZS      -0.067400
      6 C26         54.9270   -21.7150   -11.1180 ca         1 XZS      -0.087000
      7 C28         52.9020   -21.7930    -9.7770 ca         1 XZS       0.159000
      8 C02         57.1630   -24.1470   -14.2320 ca         1 XZS      -0.288300
      9 C03         56.3770   -23.2280   -13.5140 ca         1 XZS       0.421900
     10 C05         57.2030   -21.5220   -14.7870 ca         1 XZS       0.412900
     11 C07         57.9830   -23.6190   -15.2470 ca         1 XZS       0.171900
     12 C09         56.6160   -19.0330   -14.5940 ca         1 XZS       0.369000
     13 C11         56.6660   -16.6440   -14.1510 ca         1 XZS       0.216000
     14 C14         54.6770   -17.9190   -13.6400 ca         1 XZS       0.216000
     15 C16         55.3010   -19.0790   -14.1140 ca         1 XZS      -0.213500
     16 C18         55.3260   -14.8100   -11.8450 c6         1 XZS      -0.067400
     17 C19         54.8570   -13.3630   -11.5150 c6         1 XZS       0.167300
     18 C25         54.6670   -23.0140   -11.6010 ca         1 XZS       0.289000
     19 C27         54.0390   -21.1000   -10.2190 ca         1 XZS      -0.114000
     20 C29         52.6570   -23.1210   -10.2090 ca         1 XZS       0.262000
     21 C32         52.3760   -26.1710    -8.3790 c3         1 XZS      -0.250000
     22 C33         52.0330   -27.0050    -7.1090 c3         1 XZS      -0.079100
     23 C34         52.0350   -27.0160    -9.6400 c3         1 XZS      -0.079100
     24 C35         53.8980   -25.8410    -8.3460 c3         1 XZS      -0.079100
     25 C38         53.5340   -23.7040   -11.1390 ca         1 XZS      -0.134000
     26 F12         57.3720   -15.4920   -14.1900 f          1 XZS      -0.178500
     27 F15         53.4090   -18.0230   -13.1800 f          1 XZS      -0.178500
     28 N04         56.3950   -21.9190   -13.7950 nb         1 XZS      -0.293000
     29 N06         58.0080   -22.3010   -15.5240 nb         1 XZS      -0.260000
     30 N08         57.2770   -20.1660   -15.0710 nu         1 XZS      -0.931900
     31 N20         53.5640   -13.0340   -12.1680 n3         1 XZS      -0.725600
     32 N30         51.5210   -23.8320    -9.8010 nu         1 XZS      -0.954100
     33 O36         51.8840   -23.7130    -7.3400 o          1 XZS      -0.534500
     34 O37         49.9310   -24.9900    -8.3170 o          1 XZS      -0.534500
     35 S31         51.3490   -24.6290    -8.3480 s6         1 XZS       1.210100
     36 H1          58.3030   -17.7510   -14.9990 ha         1 XZS       0.151000
     37 H2          53.6200   -15.6680   -12.8070 hc         1 XZS       0.077700
     38 H3          54.1510   -12.1560   -14.0330 h1         1 XZS       0.032450
     39 H4          52.6600   -13.0970   -14.0900 h1         1 XZS       0.032450
     40 H5          53.9650   -14.7070   -15.0770 hc         1 XZS       0.047450
     41 H6          55.4500   -13.9460   -14.5340 hc         1 XZS       0.047450
     42 H7          55.8150   -21.1760   -11.4300 ha         1 XZS       0.151000
     43 H8          57.4110   -25.8540   -12.8990 hc         1 XZS       0.042033
     44 H9          56.1670   -26.0830   -14.1450 hc         1 XZS       0.042033
     45 H10         57.8800   -26.1820   -14.5700 hc         1 XZS       0.042033
     46 H11         58.6290   -24.2560   -15.8480 h4         1 XZS       0.025100
     47 H12         54.7420   -20.0070   -14.1160 ha         1 XZS       0.151000
     48 H13         55.1070   -15.4650   -10.9910 hc         1 XZS       0.047450
     49 H14         56.4180   -14.8080   -11.9450 hc         1 XZS       0.047450
     50 H15         54.7820   -13.2580   -10.4220 h1         1 XZS       0.032450
     51 H16         55.6300   -12.6540   -11.8500 h1         1 XZS       0.032450
     52 H17         52.8280   -11.8090   -10.5890 h1         1 XZS       0.030033
     53 H18         53.6140   -10.9170   -11.9140 h1         1 XZS       0.030033
     54 H19         51.9860   -11.6030   -12.1390 h1         1 XZS       0.030033
     55 H20         54.2290   -20.0890    -9.8670 ha         1 XZS       0.147000
     56 H21         52.6180   -27.9320    -7.0780 hc         1 XZS       0.050811
     57 H22         52.2530   -26.4400    -6.1930 hc         1 XZS       0.050811
     58 H23         50.9720   -27.2810    -7.0880 hc         1 XZS       0.050811
     59 H24         52.6180   -27.9450    -9.6580 hc         1 XZS       0.050811
     60 H25         50.9720   -27.2880    -9.6580 hc         1 XZS       0.050811
     61 H26         52.2530   -26.4700   -10.5630 hc         1 XZS       0.050811
     62 H27         54.4920   -26.7610    -8.2850 hc         1 XZS       0.050811
     63 H28         54.2240   -25.3100    -9.2430 hc         1 XZS       0.050811
     64 H29         54.1550   -25.2240    -7.4760 hc         1 XZS       0.050811
     65 H30         53.3240   -24.6990   -11.5150 ha         1 XZS       0.120000
     66 H31         58.0600   -19.9500   -15.6860 hn         1 XZS       0.516000
     67 H33         55.4000   -24.6730   -12.5260 hn         1 XZS       0.502000
     68 H34         50.6990   -23.2440    -9.7330 hn         1 XZS       0.512000
     69 C23         52.9680   -11.7730   -11.6770 c3         1 XZS       0.156100
     70 N24         55.5120   -23.6620   -12.5140 nu         1 XZS      -0.938900
     71 C01         57.1540   -25.6480   -13.9450 c3         1 XZS      -0.025800
     72 F39         52.0390   -21.1670    -8.9410 f          1 XZS      -0.165000
@<TRIPOS>BOND
     1     1    12 ar  
     2     1    13 ar  
     3     1    36 1   
     4     2     3 1   
     5     2    13 ar  
     6     2    14 ar  
     7     3     5 1   
     8     3    16 1   
     9     3    37 1   
    10     4     5 1   
    11     4    31 1   
    12     4    38 1   
    13     4    39 1   
    14     5    40 1   
    15     5    41 1   
    16     6    18 ar  
    17     6    19 ar  
    18     6    42 1   
    19     7    19 ar  
    20     7    20 ar  
    21     7    72 1   
    22     8     9 ar  
    23     8    11 ar  
    24     8    71 1   
    25     9    28 ar  
    26     9    70 1   
    27    10    28 ar  
    28    10    29 ar  
    29    10    30 1   
    30    11    29 ar  
    31    11    46 1   
    32    12    15 ar  
    33    12    30 1   
    34    13    26 1   
    35    14    15 ar  
    36    14    27 1   
    37    15    47 1   
    38    16    17 1   
    39    16    48 1   
    40    16    49 1   
    41    17    31 1   
    42    17    50 1   
    43    17    51 1   
    44    18    25 ar  
    45    18    70 1   
    46    19    55 1   
    47    20    25 ar  
    48    20    32 1   
    49    21    22 1   
    50    21    23 1   
    51    21    24 1   
    52    21    35 1   
    53    22    56 1   
    54    22    57 1   
    55    22    58 1   
    56    23    59 1   
    57    23    60 1   
    58    23    61 1   
    59    24    62 1   
    60    24    63 1   
    61    24    64 1   
    62    25    65 1   
    63    30    66 1   
    64    31    69 1   
    65    32    35 1   
    66    32    68 1   
    67    33    35 2   
    68    34    35 2   
    69    43    71 1   
    70    44    71 1   
    71    45    71 1   
    72    52    69 1   
    73    53    69 1   
    74    54    69 1   
    75    67    70 1   
@<TRIPOS>SUBSTRUCTURE
     1 XZS         1 TEMP              0 ****  ****    0 ROOT
