@<TRIPOS>MOLECULE
XZS
   72    75     1     0     0
SMALL
abcg2


@<TRIPOS>ATOM
      1 C10         57.1820   -17.6980   -14.8290 ca         1 XZS      -0.213500
      2 C13         55.3630   -16.6680   -13.5390 ca         1 XZS      -0.171300
      3 C17         54.6700   -15.4660   -12.9480 c6         1 XZS       0.003600
      4 C21         53.2910   -13.3880   -13.3480 c6         1 XZS       0.167300
      5 C22         54.1580   -14.4760   -14.0040 c6         1 XZS      -0.067400
      6 C26         54.9430   -21.6260   -11.4020 ca         1 XZS      -0.087000
      7 C28         52.8770   -21.8400   -10.2090 ca         1 XZS       0.159000
      8 C02         57.5270   -24.0150   -14.2030 ca         1 XZS      -0.288300
      9 C03         56.6550   -23.1310   -13.5210 ca         1 XZS       0.421900
     10 C05         57.3760   -21.3920   -14.8060 ca         1 XZS       0.412900
     11 C07         58.2800   -23.4280   -15.1980 ca         1 XZS       0.171900
     12 C09         56.6750   -18.9830   -14.5900 ca         1 XZS       0.369000
     13 C11         56.5220   -16.6060   -14.3110 ca         1 XZS       0.216000
     14 C14         54.9030   -17.9670   -13.3510 ca         1 XZS       0.216000
     15 C16         55.4990   -19.1100   -13.8470 ca         1 XZS      -0.213500
     16 C18         55.5540   -14.7180   -11.9210 c6         1 XZS      -0.067400
     17 C19         55.0680   -13.2750   -11.7240 c6         1 XZS       0.167300
     18 C25         54.8820   -22.9770   -11.7550 ca         1 XZS       0.289000
     19 C27         53.9280   -21.0580   -10.6430 ca         1 XZS      -0.114000
     20 C29         52.8210   -23.2020   -10.4920 ca         1 XZS       0.262000
     21 C32         52.0480   -26.1830    -8.3010 c3         1 XZS      -0.250000
     22 C33         51.8100   -26.5790    -6.8400 c3         1 XZS      -0.079100
     23 C34         51.1810   -27.0130    -9.2470 c3         1 XZS      -0.079100
     24 C35         53.5280   -26.3020    -8.6600 c3         1 XZS      -0.079100
     25 C38         53.8220   -23.7530   -11.2800 ca         1 XZS      -0.134000
     26 F12         57.0610   -15.3850   -14.5650 f          1 XZS      -0.178500
     27 F15         53.7680   -18.1440   -12.6230 f          1 XZS      -0.178500
     28 N04         56.5840   -21.8340   -13.8310 nb         1 XZS      -0.293000
     29 N06         58.2320   -22.1300   -15.5230 nb         1 XZS      -0.260000
     30 N08         57.3670   -20.0560   -15.1410 nu         1 XZS      -0.931900
     31 N20         53.6260   -13.1970   -11.9330 n3         1 XZS      -0.725600
     32 N30         51.7490   -24.0130   -10.0240 nu         1 XZS      -0.954100
     33 O36         52.4500   -23.6300    -7.6460 o          1 XZS      -0.534500
     34 O37         50.1210   -24.3520    -8.1780 o          1 XZS      -0.534500
     35 S31         51.5430   -24.4280    -8.4420 s6         1 XZS       1.210100
     36 H1          58.0870   -17.5520   -15.4040 ha         1 XZS       0.151000
     37 H2          53.7970   -15.8370   -12.4140 hc         1 XZS       0.077700
     38 H3          53.4180   -12.4440   -13.9050 h1         1 XZS       0.032450
     39 H4          52.2320   -13.6540   -13.4070 h1         1 XZS       0.032450
     40 H5          53.5760   -15.0000   -14.7640 hc         1 XZS       0.047450
     41 H6          55.0080   -14.0200   -14.5120 hc         1 XZS       0.047450
     42 H7          55.7700   -21.0200   -11.7270 ha         1 XZS       0.151000
     43 H8          57.9240   -25.6410   -12.8390 hc         1 XZS       0.042033
     44 H9          56.6700   -25.9900   -14.0280 hc         1 XZS       0.042033
     45 H10         58.3630   -25.9550   -14.5200 hc         1 XZS       0.042033
     46 H11         58.9710   -24.0390   -15.7730 h4         1 XZS       0.025100
     47 H12         55.0600   -20.0720   -13.6520 ha         1 XZS       0.151000
     48 H13         55.5200   -15.2590   -10.9730 hc         1 XZS       0.047450
     49 H14         56.5930   -14.7050   -12.2490 hc         1 XZS       0.047450
     50 H15         55.2910   -12.9400   -10.7100 h1         1 XZS       0.032450
     51 H16         55.6030   -12.5920   -12.4080 h1         1 XZS       0.032450
     52 H17         53.2470   -11.8790   -10.3530 h1         1 XZS       0.030033
     53 H18         53.4480   -11.0710   -11.9250 h1         1 XZS       0.030033
     54 H19         51.9660   -11.9810   -11.5720 h1         1 XZS       0.030033
     55 H20         53.9520   -20.0070   -10.3900 ha         1 XZS       0.147000
     56 H21         52.1000   -27.6250    -6.7230 hc         1 XZS       0.050811
     57 H22         52.4150   -25.9790    -6.1610 hc         1 XZS       0.050811
     58 H23         50.7600   -26.4820    -6.5640 hc         1 XZS       0.050811
     59 H24         51.4770   -28.0590    -9.1490 hc         1 XZS       0.050811
     60 H25         50.1240   -26.9310    -8.9960 hc         1 XZS       0.050811
     61 H26         51.3270   -26.7150   -10.2850 hc         1 XZS       0.050811
     62 H27         53.8330   -27.3370    -8.4940 hc         1 XZS       0.050811
     63 H28         53.7080   -26.0640    -9.7070 hc         1 XZS       0.050811
     64 H29         54.1460   -25.6580    -8.0370 hc         1 XZS       0.050811
     65 H30         53.7640   -24.8030   -11.5320 ha         1 XZS       0.120000
     66 H31         58.0860   -19.8190   -15.8080 hn         1 XZS       0.516000
     67 H33         55.8610   -24.6300   -12.4370 hn         1 XZS       0.502000
     68 H34         50.8910   -24.0270   -10.5580 hn         1 XZS       0.512000
     69 C23         53.0480   -11.9690   -11.4220 c3         1 XZS       0.156100
     70 N24         55.8600   -23.6260   -12.5260 nu         1 XZS      -0.938900
     71 C01         57.6250   -25.4760   -13.8790 c3         1 XZS      -0.025800
     72 F39         51.8770   -21.2690    -9.5020 f          1 XZS      -0.165000
@<TRIPOS>BOND
     1     1    12 ar  
     2     1    13 ar  
     3     1    36 1   
     4     2     3 1   
     5     2    13 ar  
     6     2    14 ar  
     7     3     5 1   
     8     3    16 1   
     9     3    37 1   
    10     4     5 1   
    11     4    31 1   
    12     4    38 1   
    13     4    39 1   
    14     5    40 1   
    15     5    41 1   
    16     6    18 ar  
    17     6    19 ar  
    18     6    42 1   
    19     7    19 ar  
    20     7    20 ar  
    21     7    72 1   
    22     8     9 ar  
    23     8    11 ar  
    24     8    71 1   
    25     9    28 ar  
    26     9    70 1   
    27    10    28 ar  
    28    10    29 ar  
    29    10    30 1   
    30    11    29 ar  
    31    11    46 1   
    32    12    15 ar  
    33    12    30 1   
    34    13    26 1   
    35    14    15 ar  
    36    14    27 1   
    37    15    47 1   
    38    16    17 1   
    39    16    48 1   
    40    16    49 1   
    41    17    31 1   
    42    17    50 1   
    43    17    51 1   
    44    18    25 ar  
    45    18    70 1   
    46    19    55 1   
    47    20    25 ar  
    48    20    32 1   
    49    21    22 1   
    50    21    23 1   
    51    21    24 1   
    52    21    35 1   
    53    22    56 1   
    54    22    57 1   
    55    22    58 1   
    56    23    59 1   
    57    23    60 1   
    58    23    61 1   
    59    24    62 1   
    60    24    63 1   
    61    24    64 1   
    62    25    65 1   
    63    30    66 1   
    64    31    69 1   
    65    32    35 1   
    66    32    68 1   
    67    33    35 2   
    68    34    35 2   
    69    43    71 1   
    70    44    71 1   
    71    45    71 1   
    72    52    69 1   
    73    53    69 1   
    74    54    69 1   
    75    67    70 1   
@<TRIPOS>SUBSTRUCTURE
     1 XZS         1 TEMP              0 ****  ****    0 ROOT
