@<TRIPOS>MOLECULE
XZT
   22    23     1     0     0
SMALL
No Charge or Current Charge


@<TRIPOS>ATOM
      1 C10         22.7870     8.3580    -7.1370 ca         1 XZT      -0.166000
      2 C13         24.1700     9.2300    -5.3350 ca         1 XZT      -0.197000
      3 C02         20.6470     6.5120    -3.6450 c          1 XZT       0.574500
      4 C03         19.7610     6.5580    -2.3920 c5         1 XZT      -0.165400
      5 C04         19.1060     7.9610    -2.5150 c5         1 XZT      -0.165400
      6 C05         20.2330     8.7840    -3.1590 c          1 XZT       0.574500
      7 C08         21.9930     8.2350    -4.8340 ca         1 XZT      -0.109000
      8 C09         21.8020     7.9820    -6.2080 ca         1 XZT      -0.042000
      9 C11         23.9650     8.9820    -6.6980 ca         1 XZT       0.209000
     10 C14         23.1870     8.8570    -4.4060 ca         1 XZT       0.219000
     11 F12         24.9100     9.3390    -7.5940 f          1 XZT      -0.168000
     12 F15         23.4120     9.0740    -3.0910 f          1 XZT      -0.161000
     13 N07         20.9750     7.8490    -3.8890 n          1 XZT      -0.217000
     14 O06         20.5340     9.9550    -2.9740 o          1 XZT      -0.482500
     15 H1          22.6400     8.1680    -8.1970 ha         1 XZT       0.141000
     16 H2          25.0870     9.7040    -4.9990 ha         1 XZT       0.154000
     17 H3          19.0770     5.7030    -2.3410 hc         1 XZT       0.088450
     18 H4          20.4200     6.5550    -1.5160 hc         1 XZT       0.088450
     19 H5          18.7460     8.4160    -1.5860 hc         1 XZT       0.088450
     20 H6          18.2820     7.9050    -3.2360 hc         1 XZT       0.088450
     21 H7          20.8890     7.5010    -6.5550 ha         1 XZT       0.130000
     22 O01         20.8870     5.5710    -4.3890 o          1 XZT      -0.482500
@<TRIPOS>BOND
     1     1     8 ar  
     2     1     9 ar  
     3     1    15 1   
     4     2     9 ar  
     5     2    10 ar  
     6     2    16 1   
     7     3     4 1   
     8     3    13 1   
     9     3    22 2   
    10     4     5 1   
    11     4    17 1   
    12     4    18 1   
    13     5     6 1   
    14     5    19 1   
    15     5    20 1   
    16     6    13 1   
    17     6    14 2   
    18     7     8 ar  
    19     7    10 ar  
    20     7    13 1   
    21     8    21 1   
    22     9    11 1   
    23    10    12 1   
@<TRIPOS>SUBSTRUCTURE
     1 XZT         1 TEMP              0 ****  ****    0 ROOT
