@<TRIPOS>MOLECULE
XZT
   22    23     1     0     0
SMALL
abcg2


@<TRIPOS>ATOM
      1 C10         22.7960     8.3320    -7.1290 ca         1 XZT      -0.166000
      2 C13         24.1290     9.2530    -5.3240 ca         1 XZT      -0.197000
      3 C02         20.7540     6.5260    -3.5550 c          1 XZT       0.574500
      4 C03         19.6410     6.5410    -2.5390 c5         1 XZT      -0.165400
      5 C04         19.2610     8.0080    -2.3770 c5         1 XZT      -0.165400
      6 C05         20.1970     8.7650    -3.2810 c          1 XZT       0.574500
      7 C08         21.9950     8.2090    -4.8580 ca         1 XZT      -0.109000
      8 C09         21.8300     7.9530    -6.2110 ca         1 XZT      -0.042000
      9 C11         23.9220     8.9840    -6.6640 ca         1 XZT       0.209000
     10 C14         23.1510     8.8490    -4.4380 ca         1 XZT       0.219000
     11 F12         24.8490     9.3780    -7.5420 f          1 XZT      -0.168000
     12 F15         23.3200     9.0840    -3.1380 f          1 XZT      -0.161000
     13 N07         21.0110     7.8400    -3.9190 n          1 XZT      -0.217000
     14 O06         20.2620     9.9530    -3.4620 o          1 XZT      -0.482500
     15 H1          22.6690     8.1330    -8.1840 ha         1 XZT       0.141000
     16 H2          25.0210     9.7580    -4.9780 ha         1 XZT       0.154000
     17 H3          18.8190     5.9230    -2.9000 hc         1 XZT       0.088450
     18 H4          20.0000     6.0900    -1.6130 hc         1 XZT       0.088450
     19 H5          19.3740     8.3710    -1.3550 hc         1 XZT       0.088450
     20 H6          18.2340     8.2150    -2.6790 hc         1 XZT       0.088450
     21 H7          20.9300     7.4580    -6.5510 ha         1 XZT       0.130000
     22 O01         21.3430     5.5770    -3.9990 o          1 XZT      -0.482500
@<TRIPOS>BOND
     1     1     8 ar  
     2     1     9 ar  
     3     1    15 1   
     4     2     9 ar  
     5     2    10 ar  
     6     2    16 1   
     7     3     4 1   
     8     3    13 1   
     9     3    22 2   
    10     4     5 1   
    11     4    17 1   
    12     4    18 1   
    13     5     6 1   
    14     5    19 1   
    15     5    20 1   
    16     6    13 1   
    17     6    14 2   
    18     7     8 ar  
    19     7    10 ar  
    20     7    13 1   
    21     8    21 1   
    22     9    11 1   
    23    10    12 1   
@<TRIPOS>SUBSTRUCTURE
     1 XZT         1 TEMP              0 ****  ****    0 ROOT
