@<TRIPOS>MOLECULE
XZU
   45    48     1     0     0
SMALL
abcg2


@<TRIPOS>ATOM
      1 C4           0.4870    54.1820    86.2650 ca         1 XZU      -0.084000
      2 C14         -4.7820    48.4520    81.0070 cx         1 XZU      -0.111400
      3 C5           1.3460    53.1360    86.5660 ca         1 XZU      -0.136000
      4 C6           1.1900    51.9260    85.9010 ca         1 XZU      -0.084000
      5 C11         -5.2310    51.8020    80.2430 ca         1 XZU      -0.082000
      6 C7           0.1950    51.7730    84.9510 ca         1 XZU      -0.148500
      7 C8          -3.4060    52.8420    82.0550 ca         1 XZU      -0.154600
      8 C9          -3.7990    53.5970    80.9550 ca         1 XZU      -0.057000
      9 C10         -4.7070    53.0700    80.0490 ca         1 XZU      -0.117000
     10 C12         -4.8630    51.0340    81.3480 ca         1 XZU      -0.053300
     11 C13         -5.4710    49.6890    81.5250 cx         1 XZU      -0.084400
     12 N2          -5.8940    47.8860    83.2030 n7         1 XZU      -0.838400
     13 C3          -0.5180    54.0430    85.3160 ca         1 XZU      -0.148500
     14 C1          -2.4390    53.4570    83.0150 c          1 XZU       0.620700
     15 C15         -4.9410    48.6670    82.4790 cx         1 XZU       0.116500
     16 C16         -5.3190    46.7080    83.8260 cy         1 XZU       0.150500
     17 C17         -6.3990    45.9080    84.5780 cy         1 XZU      -0.085900
     18 C18         -6.5700    45.0190    83.3320 cy         1 XZU      -0.083400
     19 C19         -5.1980    45.5220    82.8460 cy         1 XZU      -0.085900
     20 C2          -0.6690    52.8280    84.6450 ca         1 XZU      -0.020000
     21 C20         -3.9490    51.5720    82.2480 ca         1 XZU      -0.087000
     22 O1          -2.3680    54.6660    83.1500 o          1 XZU      -0.577100
     23 H1           0.5910    55.1300    86.7770 ha         1 XZU       0.112500
     24 H3          -3.7910    48.5640    80.5860 hc         1 XZU       0.079200
     25 H4           2.1240    53.2590    87.3070 ha         1 XZU       0.115000
     26 H5           1.8470    51.0940    86.1190 ha         1 XZU       0.112500
     27 H6          -5.9430    51.4000    79.5310 ha         1 XZU       0.118000
     28 H7           0.0860    50.8240    84.4390 ha         1 XZU       0.125500
     29 H8          -3.3930    54.5880    80.8010 ha         1 XZU       0.136000
     30 H9          -5.0080    53.6510    79.1870 ha         1 XZU       0.120000
     31 H10         -6.5500    49.6760    81.4040 hc         1 XZU       0.098700
     32 H12         -6.3080    48.4640    83.9260 hn         1 XZU       0.420000
     33 H14         -1.1700    54.8760    85.1120 ha         1 XZU       0.125500
     34 H15         -4.0190    48.9230    83.0050 h1         1 XZU       0.050700
     35 H16         -4.4090    46.9440    84.3980 h1         1 XZU       0.033700
     36 H17         -7.2670    46.4650    84.9370 hc         1 XZU       0.050700
     37 H18         -5.9730    45.3550    85.4160 hc         1 XZU       0.050700
     38 H19         -6.6860    43.9470    83.4910 hc         1 XZU       0.052200
     39 H20         -7.3830    45.3650    82.6950 hc         1 XZU       0.052200
     40 H21         -4.3940    44.8480    83.1460 hc         1 XZU       0.050700
     41 H22         -5.0780    45.7530    81.7880 hc         1 XZU       0.050700
     42 H23         -3.6890    51.0010    83.1300 ha         1 XZU       0.111000
     43 N1          -1.6570    52.5730    83.6880 ns         1 XZU      -0.144000
     44 H2          -5.4020    47.7060    80.5270 hc         1 XZU       0.079200
     45 H11         -1.7070    51.6110    83.3880 hn         1 XZU       0.152000
@<TRIPOS>BOND
     1     1     3 ar  
     2     1    13 ar  
     3     1    23 1   
     4     2    11 1   
     5     2    15 1   
     6     2    24 1   
     7     2    44 1   
     8     3     4 ar  
     9     3    25 1   
    10     4     6 ar  
    11     4    26 1   
    12     5     9 ar  
    13     5    10 ar  
    14     5    27 1   
    15     6    20 ar  
    16     6    28 1   
    17     7     8 ar  
    18     7    14 1   
    19     7    21 ar  
    20     8     9 ar  
    21     8    29 1   
    22     9    30 1   
    23    10    11 1   
    24    10    21 ar  
    25    11    15 1   
    26    11    31 1   
    27    12    15 1   
    28    12    16 1   
    29    12    32 1   
    30    13    20 ar  
    31    13    33 1   
    32    14    22 2   
    33    14    43 1   
    34    15    34 1   
    35    16    17 1   
    36    16    19 1   
    37    16    35 1   
    38    17    18 1   
    39    17    36 1   
    40    17    37 1   
    41    18    19 1   
    42    18    38 1   
    43    18    39 1   
    44    19    40 1   
    45    19    41 1   
    46    20    43 1   
    47    21    42 1   
    48    43    45 1   
@<TRIPOS>SUBSTRUCTURE
     1 XZU         1 TEMP              0 ****  ****    0 ROOT
