@<TRIPOS>MOLECULE
XZU
   45    48     1     0     0
SMALL
No Charge or Current Charge


@<TRIPOS>ATOM
      1 C4           0.9240    54.2790    86.0010 ca         1 XZU      -0.084000
      2 C14         -5.7340    48.6640    80.9710 cx         1 XZU      -0.111400
      3 C5           1.0460    53.2890    86.9890 ca         1 XZU      -0.136000
      4 C6           0.2370    52.1440    86.9350 ca         1 XZU      -0.084000
      5 C11         -5.3440    51.7850    80.3030 ca         1 XZU      -0.082000
      6 C7          -0.6920    51.9890    85.8920 ca         1 XZU      -0.148500
      7 C8          -3.2550    52.8480    81.8920 ca         1 XZU      -0.154600
      8 C9          -3.6610    53.4960    80.7020 ca         1 XZU      -0.057000
      9 C10         -4.6980    52.9680    79.9160 ca         1 XZU      -0.117000
     10 C12         -4.9550    51.1210    81.4780 ca         1 XZU      -0.053300
     11 C13         -5.6500    49.8560    81.8940 cx         1 XZU      -0.084400
     12 N2          -5.3560    47.7900    83.3170 n7         1 XZU      -0.838400
     13 C3          -0.0050    54.1240    84.9570 ca         1 XZU      -0.148500
     14 C1          -2.1300    53.4470    82.7210 c          1 XZU       0.620700
     15 C15         -4.8780    48.5960    82.2110 cx         1 XZU       0.116500
     16 C16         -4.8280    46.4360    83.3790 cy         1 XZU       0.150500
     17 C17         -5.4550    45.4690    84.4400 cy         1 XZU      -0.085900
     18 C18         -6.4690    45.0550    83.3210 cy         1 XZU      -0.083400
     19 C19         -5.3140    45.3850    82.3190 cy         1 XZU      -0.085900
     20 C2          -0.8230    52.9730    84.8920 ca         1 XZU      -0.020000
     21 C20         -3.9190    51.6530    82.2700 ca         1 XZU      -0.087000
     22 O1          -1.5740    54.4850    82.3750 o          1 XZU      -0.577100
     23 H1           1.5490    55.1680    86.0440 ha         1 XZU       0.112500
     24 H3          -5.2220    48.7190    80.0140 hc         1 XZU       0.079200
     25 H4           1.7660    53.4110    87.7960 ha         1 XZU       0.115000
     26 H5           0.3290    51.3760    87.7000 ha         1 XZU       0.112500
     27 H6          -6.1480    51.3830    79.6890 ha         1 XZU       0.118000
     28 H7          -1.3130    51.0960    85.8620 ha         1 XZU       0.125500
     29 H8          -3.1740    54.4150    80.3810 ha         1 XZU       0.136000
     30 H9          -5.0000    53.4780    79.0040 ha         1 XZU       0.120000
     31 H10         -6.5280    50.0570    82.5030 hc         1 XZU       0.098700
     32 H12         -5.1190    48.2640    84.1970 hn         1 XZU       0.420000
     33 H14         -0.0750    54.9130    84.2150 ha         1 XZU       0.125500
     34 H15         -3.7950    48.6370    82.0800 h1         1 XZU       0.050700
     35 H16         -3.7350    46.4980    83.4550 h1         1 XZU       0.033700
     36 H17         -5.8880    45.9410    85.3280 hc         1 XZU       0.050700
     37 H18         -4.7860    44.6640    84.7660 hc         1 XZU       0.050700
     38 H19         -6.8060    44.0130    83.3400 hc         1 XZU       0.052200
     39 H20         -7.3470    45.7070    83.2360 hc         1 XZU       0.052200
     40 H21         -4.6110    44.5600    82.1520 hc         1 XZU       0.050700
     41 H22         -5.6220    45.7770    81.3450 hc         1 XZU       0.050700
     42 H23         -3.6460    51.1220    83.1780 ha         1 XZU       0.111000
     43 N1          -1.7870    52.7430    83.8710 ns         1 XZU      -0.144000
     44 H2          -6.6640    48.1010    80.9590 hc         1 XZU       0.079200
     45 H11         -2.3290    51.9020    84.0120 hn         1 XZU       0.152000
@<TRIPOS>BOND
     1     1     3 ar  
     2     1    13 ar  
     3     1    23 1   
     4     2    11 1   
     5     2    15 1   
     6     2    24 1   
     7     2    44 1   
     8     3     4 ar  
     9     3    25 1   
    10     4     6 ar  
    11     4    26 1   
    12     5     9 ar  
    13     5    10 ar  
    14     5    27 1   
    15     6    20 ar  
    16     6    28 1   
    17     7     8 ar  
    18     7    14 1   
    19     7    21 ar  
    20     8     9 ar  
    21     8    29 1   
    22     9    30 1   
    23    10    11 1   
    24    10    21 ar  
    25    11    15 1   
    26    11    31 1   
    27    12    15 1   
    28    12    16 1   
    29    12    32 1   
    30    13    20 ar  
    31    13    33 1   
    32    14    22 2   
    33    14    43 1   
    34    15    34 1   
    35    16    17 1   
    36    16    19 1   
    37    16    35 1   
    38    17    18 1   
    39    17    36 1   
    40    17    37 1   
    41    18    19 1   
    42    18    38 1   
    43    18    39 1   
    44    19    40 1   
    45    19    41 1   
    46    20    43 1   
    47    21    42 1   
    48    43    45 1   
@<TRIPOS>SUBSTRUCTURE
     1 XZU         1 TEMP              0 ****  ****    0 ROOT
