@<TRIPOS>MOLECULE
XZV
   39    41     1     0     0
SMALL
No Charge or Current Charge


@<TRIPOS>ATOM
      1 N1         -17.2200    15.0870    26.2530 n          1 XZV      -0.424800
      2 C4         -14.2380    20.2090    25.2990 cx         1 XZV      -0.130400
      3 C5         -18.3200    14.6260    27.1480 c6         1 XZV       0.084500
      4 C6         -18.9880    13.2930    26.7430 c6         1 XZV       0.089500
      5 C8         -21.6430    12.2670    25.6040 cc         1 XZV       0.063500
      6 C10        -23.7250    11.6950    26.2260 cd         1 XZV      -0.178000
      7 C13        -17.4270    14.8210    24.7950 c6         1 XZV       0.084500
      8 N          -15.4950    16.6250    25.7650 ns         1 XZV      -0.504900
      9 C          -16.3330    16.0840    26.7090 c          1 XZV       0.650100
     10 O          -16.3090    16.4460    27.8760 o          1 XZV      -0.637100
     11 C1         -14.5220    17.6860    26.0190 c3         1 XZV       0.135000
     12 C11        -23.2700    12.7080    27.0180 cc         1 XZV       0.218000
     13 C12        -18.1700    13.5050    24.4450 c6         1 XZV       0.089500
     14 C2         -15.1210    19.0460    25.6900 cx         1 XZV      -0.157700
     15 C3         -15.1390    19.5660    24.2710 cx         1 XZV      -0.130400
     16 C9         -22.6860    11.4190    25.3110 cd         1 XZV      -0.102000
     17 N2         -19.3510    13.2270    25.3010 n          1 XZV      -0.406800
     18 O1         -20.2070    11.7330    23.7780 o          1 XZV      -0.587100
     19 O2         -22.0030    13.0920    26.6560 os         1 XZV      -0.223000
     20 Cl         -24.0270    13.5430    28.3360 cl         1 XZV      -0.095000
     21 H6         -14.5100    21.1970    25.6650 hc         1 XZV       0.069950
     22 H8         -17.9410    14.5210    28.1740 h1         1 XZV       0.056950
     23 H9         -19.0910    15.4090    27.1700 h1         1 XZV       0.056950
     24 H11        -18.2730    12.4830    26.9460 h1         1 XZV       0.066200
     25 H10        -19.8380    13.1110    27.4070 h1         1 XZV       0.066200
     26 H13        -24.6950    11.2140    26.2890 ha         1 XZV       0.158000
     27 H17        -16.4610    14.8000    24.2730 h1         1 XZV       0.056950
     28 H16        -18.0020    15.6600    24.3790 h1         1 XZV       0.056950
     29 H          -15.5810    16.2730    24.8230 hn         1 XZV       0.302500
     30 H1         -14.2050    17.6620    27.0710 h1         1 XZV       0.060200
     31 H2         -13.6350    17.5050    25.3970 h1         1 XZV       0.060200
     32 H14        -17.4650    12.6670    24.5460 h1         1 XZV       0.066200
     33 H15        -18.4700    13.5480    23.3890 h1         1 XZV       0.066200
     34 H3         -15.9860    19.2770    26.3090 hc         1 XZV       0.096700
     35 H5         -14.6720    18.9610    23.4970 hc         1 XZV       0.069950
     36 H4         -16.0160    20.1210    23.9460 hc         1 XZV       0.069950
     37 H12        -22.7020    10.6780    24.5170 ha         1 XZV       0.161000
     38 C7         -20.3670    12.3560    24.8220 c          1 XZV       0.551600
     39 H7         -13.1680    20.0350    25.2130 hc         1 XZV       0.069950
@<TRIPOS>BOND
     1     1     3 1   
     2     1     7 1   
     3     1     9 1   
     4     2    14 1   
     5     2    15 1   
     6     2    21 1   
     7     2    39 1   
     8     3     4 1   
     9     3    22 1   
    10     3    23 1   
    11     4    17 1   
    12     4    24 1   
    13     4    25 1   
    14     5    16 2   
    15     5    19 1   
    16     5    38 1   
    17     6    12 2   
    18     6    16 1   
    19     6    26 1   
    20     7    13 1   
    21     7    27 1   
    22     7    28 1   
    23     8     9 1   
    24     8    11 1   
    25     8    29 1   
    26     9    10 2   
    27    11    14 1   
    28    11    30 1   
    29    11    31 1   
    30    12    19 1   
    31    12    20 1   
    32    13    17 1   
    33    13    32 1   
    34    13    33 1   
    35    14    15 1   
    36    14    34 1   
    37    15    35 1   
    38    15    36 1   
    39    16    37 1   
    40    17    38 1   
    41    18    38 2   
@<TRIPOS>SUBSTRUCTURE
     1 XZV         1 TEMP              0 ****  ****    0 ROOT
