@<TRIPOS>MOLECULE
XZV
   39    41     1     0     0
SMALL
bcc


@<TRIPOS>ATOM
      1 N1         -17.3420    15.0400    26.0490 n          1 XZV      -0.491800
      2 C4         -14.3980    20.0940    25.5400 cx         1 XZV      -0.130400
      3 C5         -18.4840    14.7350    26.8920 c6         1 XZV       0.084500
      4 C6         -18.8570    13.2700    26.7680 c6         1 XZV       0.089500
      5 C8         -21.4600    12.3910    25.5690 cc         1 XZV       0.173200
      6 C10        -23.5340    12.0550    26.3210 cd         1 XZV      -0.261300
      7 C13        -17.4730    14.6140    24.6690 c6         1 XZV       0.084500
      8 N          -15.5890    16.4920    25.5470 ns         1 XZV      -0.571900
      9 C          -16.4590    16.0040    26.4720 c          1 XZV       0.784100
     10 O          -16.4230    16.3680    27.6430 o          1 XZV      -0.637100
     11 C1         -14.6510    17.5390    25.8930 c3         1 XZV       0.135000
     12 C11        -22.9950    13.1620    26.8850 cc         1 XZV       0.327700
     13 C12        -17.8980    13.1540    24.5790 c6         1 XZV       0.089500
     14 C2         -15.2530    18.9200    25.9000 cx         1 XZV      -0.157700
     15 C3         -15.4700    19.6310    24.6000 cx         1 XZV      -0.130400
     16 C9         -22.5270    11.5600    25.4490 cd         1 XZV      -0.185300
     17 N2         -19.0880    12.9320    25.3750 n          1 XZV      -0.473800
     18 O1         -20.1890    11.8580    23.7140 o          1 XZV      -0.587100
     19 O2         -21.7550    13.3840    26.4470 os         1 XZV      -0.311800
     20 CL         -23.6110    14.2690    28.0030 cl         1 XZV      -0.095000
     21 H6         -14.5480    21.0220    26.0760 hc         1 XZV       0.069950
     22 H8         -18.2380    14.9550    27.9270 h1         1 XZV       0.056950
     23 H9         -19.3470    15.3510    26.6110 h1         1 XZV       0.056950
     24 H11        -18.0300    12.6510    27.1310 h1         1 XZV       0.066200
     25 H10        -19.7150    13.0470    27.3920 h1         1 XZV       0.066200
     26 H13        -24.5160    11.6510    26.5000 ha         1 XZV       0.176000
     27 H17        -16.5180    14.6880    24.1520 h1         1 XZV       0.056950
     28 H16        -18.1980    15.2370    24.1300 h1         1 XZV       0.056950
     29 H          -15.8200    16.4340    24.5690 hn         1 XZV       0.302500
     30 H1         -14.2110    17.3100    26.8630 h1         1 XZV       0.060200
     31 H2         -13.8370    17.4980    25.1660 h1         1 XZV       0.060200
     32 H14        -17.0910    12.5120    24.9460 h1         1 XZV       0.066200
     33 H15        -18.0850    12.8980    23.5400 h1         1 XZV       0.066200
     34 H3         -16.0000    19.0870    26.6690 hc         1 XZV       0.096700
     35 H5         -15.1650    19.1300    23.6890 hc         1 XZV       0.069950
     36 H4         -16.3560    20.2440    24.4920 hc         1 XZV       0.069950
     37 H12        -22.5890    10.6880    24.8190 ha         1 XZV       0.179000
     38 C7         -20.1850    12.3740    24.8240 c          1 XZV       0.618600
     39 H7         -13.3670    19.9050    25.2640 hc         1 XZV       0.069950
@<TRIPOS>BOND
     1     1     3 1   
     2     1     7 1   
     3     1     9 1   
     4     2    14 1   
     5     2    15 1   
     6     2    21 1   
     7     2    39 1   
     8     3     4 1   
     9     3    22 1   
    10     3    23 1   
    11     4    17 1   
    12     4    24 1   
    13     4    25 1   
    14     5    16 2   
    15     5    19 1   
    16     5    38 1   
    17     6    12 2   
    18     6    16 1   
    19     6    26 1   
    20     7    13 1   
    21     7    27 1   
    22     7    28 1   
    23     8     9 1   
    24     8    11 1   
    25     8    29 1   
    26     9    10 2   
    27    11    14 1   
    28    11    30 1   
    29    11    31 1   
    30    12    19 1   
    31    12    20 1   
    32    13    17 1   
    33    13    32 1   
    34    13    33 1   
    35    14    15 1   
    36    14    34 1   
    37    15    35 1   
    38    15    36 1   
    39    16    37 1   
    40    17    38 1   
    41    18    38 2   
@<TRIPOS>SUBSTRUCTURE
     1 XZV         1 TEMP              0 ****  ****    0 ROOT
