@<TRIPOS>MOLECULE
XZW
  187   196     1     0     0
SMALL
No Charge or Current Charge


@<TRIPOS>ATOM
      1 CAY        -30.3060    -5.2490    -3.5630 cx         1 XZW      -0.111400
      2 CAZ        -30.0540    -4.3490    -2.3790 cx         1 XZW      -0.111400
      3 CAV        -30.9770    -5.5420    -2.2370 cx         1 XZW       0.020000
      4 FAX        -30.5300    -6.6160    -1.5210 f          1 XZW      -0.238000
      5 CAU        -32.4790    -5.3020    -2.1250 c          1 XZW       0.620100
      6 OAW        -33.2880    -5.7900    -2.9050 o          1 XZW      -0.617100
      7 NAP        -32.8590    -4.4850    -1.0820 ns         1 XZW      -0.476900
      8 CAO        -34.2570    -4.0940    -0.7720 c3         1 XZW       0.045700
      9 CAQ        -34.8370    -4.8880     0.4640 c3         1 XZW      -0.045000
     10 CAS        -34.6030    -6.4150     0.2830 c3         1 XZW      -0.090100
     11 CAT        -34.1560    -4.4410     1.7880 c3         1 XZW      -0.090100
     12 CAR        -36.3670    -4.6610     0.6020 c3         1 XZW      -0.090100
     13 CAM        -34.3250    -2.5360    -0.6210 c          1 XZW       0.594100
     14 OAN        -33.3610    -1.8960    -0.2100 o          1 XZW      -0.616100
     15 N          -35.5330    -1.8690    -0.9230 n          1 XZW      -0.386800
     16 CD1        -36.4560    -2.3240    -1.9950 c5         1 XZW       0.072000
     17 CG         -37.2230    -1.0220    -2.3880 c5         1 XZW       0.151300
     18 OD2        -36.5520    -0.2800    -3.4130 oh         1 XZW      -0.658000
     19 CB         -37.2240    -0.2500    -1.0470 c5         1 XZW      -0.081400
     20 CA         -35.7620    -0.4480    -0.5480 c5         1 XZW       0.030700
     21 C          -35.7210    -0.1630     0.9850 c          1 XZW       0.598100
     22 O          -35.7910    -0.9790     1.8930 o          1 XZW      -0.604100
     23 NAC        -35.5960     1.1930     1.1930 ns         1 XZW      -0.492900
     24 CAB        -35.5730     1.8270     2.5100 c3         1 XZW       0.154300
     25 CAA        -36.3590     3.1290     2.5050 ca         1 XZW      -0.114300
     26 CBB        -35.7040     4.3320     2.1820 ca         1 XZW      -0.070000
     27 CBA        -36.4140     5.5430     2.1640 ca         1 XZW      -0.131000
     28 CBE        -37.7840     5.5700     2.4730 ca         1 XZW       0.026000
     29 CBH        -38.5090     6.8370     2.4410 cc         1 XZW      -0.175000
     30 SBG        -38.4570     7.9760     1.1320 ss         1 XZW      -0.035400
     31 CBK        -39.5100     8.9860     2.0900 cc         1 XZW       0.414300
     32 NBJ        -39.8420     8.5320     3.2960 nd         1 XZW      -0.638000
     33 CBI        -39.2540     7.2920     3.5110 cd         1 XZW       0.296300
     34 CBF        -39.4640     6.6110     4.8380 c3         1 XZW      -0.119400
     35 CBD        -38.4460     4.3660     2.7800 ca         1 XZW      -0.172000
     36 CBC        -37.7380     3.1440     2.8040 ca         1 XZW       0.147100
     37 OAH        -38.3580     1.9470     3.1110 os         1 XZW      -0.356100
     38 CBM        -39.7690     1.8500     3.3650 c3         1 XZW       0.168600
     39 CBN        -40.1020     0.3780     3.6910 c3         1 XZW      -0.095400
     40 CBL        -39.7220    -0.0660     5.1250 c3         1 XZW       0.088600
     41 NDD        -38.2760    -0.0910     5.4090 na         1 XZW       0.117800
     42 CDH        -37.3170    -0.8490     4.7870 cc         1 XZW      -0.194000
     43 NDG        -37.7460     0.6550     6.4200 nc         1 XZW      -0.197800
     44 NDF        -36.4650     0.3970     6.4420 nd         1 XZW      -0.338000
     45 CDE        -36.1680    -0.5160     5.4480 cd         1 XZW       0.196300
     46 CBP        -34.7700    -1.0280     5.1890 c3         1 XZW       0.149300
     47 OBO        -33.9310     0.0590     4.7510 os         1 XZW      -0.338100
     48 CDA        -32.6390    -0.1390     4.3130 ca         1 XZW       0.143100
     49 CDB        -32.0170    -1.4060     4.3180 ca         1 XZW      -0.173500
     50 CDC        -30.7030    -1.5470     3.8390 ca         1 XZW      -0.057500
     51 CCZ        -31.9310     0.9750     3.8370 ca         1 XZW      -0.173500
     52 CCY        -30.6220     0.8330     3.3490 ca         1 XZW      -0.057500
     53 CCP        -30.0000    -0.4320     3.3410 ca         1 XZW      -0.130300
     54 CCO        -28.5880    -0.6020     2.7820 c3         1 XZW       0.227600
     55 CCQ        -28.5180    -0.2870     1.2610 c3         1 XZW      -0.088400
     56 CCR        -29.4370    -1.1800     0.3940 c3         1 XZW      -0.027100
     57 CCS        -29.2140    -2.6710     0.6300 ca         1 XZW      -0.083300
     58 CCX        -27.9470    -3.2460     0.4180 ca         1 XZW      -0.157000
     59 CCT        -30.2720    -3.4750     1.0880 ca         1 XZW      -0.110000
     60 CCU        -30.0720    -4.8420     1.3370 ca         1 XZW      -0.168000
     61 CCV        -28.8020    -5.4250     1.1310 ca         1 XZW       0.107100
     62 ODO        -28.5690    -6.7700     1.3740 os         1 XZW      -0.329100
     63 CDP        -29.6070    -7.6660     1.8070 c3         1 XZW       0.146900
     64 CCW        -27.7320    -4.6210     0.6700 ca         1 XZW       0.114100
     65 ODQ        -26.4930    -5.2130     0.4820 os         1 XZW      -0.331100
     66 CDR        -25.3640    -4.4870    -0.0320 c3         1 XZW       0.146900
     67 OBX        -27.7300     0.3190     3.4790 os         1 XZW      -0.452100
     68 CBW        -26.3690     0.1350     3.4420 c          1 XZW       0.578100
     69 OBY        -25.8380    -0.7990     2.8550 o          1 XZW      -0.484000
     70 CBR        -25.5420     1.3180     4.0360 c6         1 XZW       0.052700
     71 CBS        -26.2980     2.1140     5.1470 c6         1 XZW      -0.077400
     72 CBT        -27.2430     3.1990     4.5960 c6         1 XZW      -0.076400
     73 CBU        -26.4420     4.1440     3.6950 c6         1 XZW      -0.085400
     74 CBV        -25.7520     3.3870     2.5410 c6         1 XZW       0.109000
     75 NBQ        -24.9510     2.1900     2.9490 n          1 XZW      -0.394800
     76 CBZ        -23.9160     1.6530     2.1350 c          1 XZW       0.603100
     77 OCA        -23.1980     0.7660     2.5840 o          1 XZW      -0.613100
     78 CCB        -23.7420     2.1160     0.6570 c3         1 XZW      -0.077400
     79 CCD        -22.2670     2.5270     0.3130 c6         1 XZW      -0.047700
     80 CCE        -21.7740     3.6900     1.2260 c6         1 XZW      -0.071900
     81 CCF        -20.3200     4.1040     0.8910 c6         1 XZW      -0.071900
     82 CCG        -20.1750     4.4890    -0.6000 c6         1 XZW      -0.074400
     83 CCH        -20.6550     3.3400    -1.5180 c6         1 XZW      -0.071900
     84 CCI        -22.1100     2.9260    -1.1860 c6         1 XZW      -0.071900
     85 CCC        -24.3260     1.0240    -0.2520 ca         1 XZW      -0.064300
     86 CCN        -23.6290    -0.1720    -0.4880 ca         1 XZW      -0.150000
     87 CCJ        -25.5900     1.2070    -0.8410 ca         1 XZW      -0.150000
     88 CCK        -26.1670     0.2170    -1.6700 ca         1 XZW       0.085100
     89 ODM        -27.4070     0.4330    -2.2510 os         1 XZW      -0.351100
     90 CDN        -28.1510     1.6560    -2.0990 c3         1 XZW       0.146400
     91 CCL        -25.4520    -0.9980    -1.9070 ca         1 XZW       0.102100
     92 ODI        -25.9190    -2.0510    -2.6960 os         1 XZW      -0.346100
     93 CDJ        -27.2400    -2.1350    -3.2570 c3         1 XZW       0.154900
     94 CCM        -24.1770    -1.1760    -1.3140 ca         1 XZW       0.085100
     95 ODK        -23.4900    -2.3560    -1.5650 os         1 XZW      -0.351100
     96 CDL        -22.1980    -2.6400    -1.0000 c3         1 XZW       0.146400
     97 HGS        -30.9220    -4.8620    -4.3720 hc         1 XZW       0.095200
     98 HAY        -29.5030    -5.9090    -3.8800 hc         1 XZW       0.095200
     99 HGT        -29.0780    -4.4070    -1.9060 hc         1 XZW       0.095200
    100 HAZ        -30.4940    -3.3540    -2.3930 hc         1 XZW       0.095200
    101 HAP        -32.1150    -4.1030    -0.5110 hn         1 XZW       0.344500
    102 HAO        -34.8710    -4.3520    -1.6420 h1         1 XZW       0.085700
    103 HGP        -35.0750    -6.9840     1.0940 hc         1 XZW       0.041589
    104 HAS        -35.0290    -6.7670    -0.6650 hc         1 XZW       0.041589
    105 HGO        -33.5360    -6.6650     0.2910 hc         1 XZW       0.041589
    106 HGR        -34.5400    -5.0180     2.6380 hc         1 XZW       0.041589
    107 HAT        -33.0740    -4.5930     1.7460 hc         1 XZW       0.041589
    108 HGQ        -34.3410    -3.3820     2.0000 hc         1 XZW       0.041589
    109 HAR        -36.7760    -5.2530     1.4300 hc         1 XZW       0.041589
    110 HGM        -36.6040    -3.6110     0.8090 hc         1 XZW       0.041589
    111 HGN        -36.8930    -4.9640    -0.3110 hc         1 XZW       0.041589
    112 HD1        -37.1540    -3.0800    -1.6150 h1         1 XZW       0.063700
    113 HGL        -35.9190    -2.7530    -2.8520 h1         1 XZW       0.063700
    114 HG         -38.2490    -1.2530    -2.7100 h1         1 XZW       0.055700
    115 HD2        -36.6610    -0.7810    -4.2520 ho         1 XZW       0.449000
    116 HB1        -37.4920     0.8060    -1.1650 hc         1 XZW       0.072200
    117 HB2        -37.9470    -0.6910    -0.3500 hc         1 XZW       0.072200
    118 HA         -35.0540     0.2120    -1.0660 h1         1 XZW       0.080700
    119 HHL        -35.5560     1.7880     0.3740 hn         1 XZW       0.321500
    120 HAB        -35.9910     1.1460     3.2610 h1         1 XZW       0.079200
    121 HAC        -34.5300     2.0230     2.7890 h1         1 XZW       0.079200
    122 HBB        -34.6420     4.3300     1.9430 ha         1 XZW       0.115000
    123 HBA        -35.8950     6.4660     1.9160 ha         1 XZW       0.118000
    124 HBK        -39.8410     9.9330     1.6810 h5         1 XZW       0.053100
    125 HBF        -39.7080     7.3350     5.6240 hc         1 XZW       0.050700
    126 HGU        -40.2880     5.8900     4.7820 hc         1 XZW       0.050700
    127 HGV        -38.5630     6.0740     5.1560 hc         1 XZW       0.050700
    128 HBD        -39.5100     4.3970     2.9880 ha         1 XZW       0.119000
    129 HBM        -40.0690     2.4910     4.2040 h1         1 XZW       0.045200
    130 HGX        -40.3330     2.1560     2.4740 h1         1 XZW       0.045200
    131 HBN        -41.1830     0.2440     3.5730 hc         1 XZW       0.068200
    132 HGY        -39.6260    -0.2800     2.9540 hc         1 XZW       0.068200
    133 HGW        -40.1090    -1.0790     5.2940 h1         1 XZW       0.067700
    134 HBL        -40.2150     0.5950     5.8500 h1         1 XZW       0.067700
    135 HDH        -37.5120    -1.5180     3.9610 h4         1 XZW       0.165000
    136 HGZ        -34.8230    -1.8080     4.4180 h1         1 XZW       0.050700
    137 HBP        -34.3740    -1.4790     6.1080 h1         1 XZW       0.050700
    138 HDB        -32.5340    -2.2880     4.6850 ha         1 XZW       0.128500
    139 HDC        -30.2360    -2.5300     3.8440 ha         1 XZW       0.121000
    140 HCZ        -32.4010     1.9550     3.8400 ha         1 XZW       0.128500
    141 HCY        -30.0920     1.7050     2.9740 ha         1 XZW       0.121000
    142 HCO        -28.2630    -1.6370     2.9570 h1         1 XZW       0.077700
    143 HG9        -27.4890    -0.4020     0.9070 hc         1 XZW       0.061200
    144 HCQ        -28.7830     0.7630     1.0950 hc         1 XZW       0.061200
    145 HHA        -29.2660    -0.9460    -0.6630 hc         1 XZW       0.054200
    146 HCR        -30.4820    -0.9120     0.5930 hc         1 XZW       0.054200
    147 HCX        -27.1400    -2.6130     0.0630 ha         1 XZW       0.118000
    148 HCT        -31.2490    -3.0330     1.2690 ha         1 XZW       0.116000
    149 HCU        -30.9080    -5.4340     1.6970 ha         1 XZW       0.118000
    150 HDP        -29.2070    -8.6810     1.9240 h1         1 XZW       0.039033
    151 HHH        -30.0180    -7.3500     2.7740 h1         1 XZW       0.039033
    152 HHI        -30.4210    -7.7040     1.0730 h1         1 XZW       0.039033
    153 HHK        -24.4860    -5.1420    -0.0920 h1         1 XZW       0.039700
    154 HDR        -25.5750    -4.1090    -1.0390 h1         1 XZW       0.039700
    155 HHJ        -25.1120    -3.6400     0.6200 h1         1 XZW       0.039700
    156 HBR        -24.7160     0.8070     4.5500 h1         1 XZW       0.110700
    157 HG0        -26.8530     1.4230     5.7970 hc         1 XZW       0.060200
    158 HBS        -25.5540     2.5960     5.7960 hc         1 XZW       0.060200
    159 HBT        -28.0760     2.7580     4.0350 hc         1 XZW       0.051200
    160 HG1        -27.6900     3.7620     5.4270 hc         1 XZW       0.051200
    161 HG2        -25.6810     4.6640     4.2930 hc         1 XZW       0.046700
    162 HBU        -27.1000     4.9230     3.2870 hc         1 XZW       0.046700
    163 HG3        -25.0980     4.1170     2.0430 h1         1 XZW       0.052200
    164 HBV        -26.5120     3.0670     1.8140 h1         1 XZW       0.052200
    165 HCB        -24.3480     3.0040     0.4760 hc         1 XZW       0.063700
    166 HCD        -21.6290     1.6530     0.5070 hc         1 XZW       0.069700
    167 HG4        -22.4370     4.5600     1.1130 hc         1 XZW       0.040700
    168 HCE        -21.8260     3.3970     2.2830 hc         1 XZW       0.040700
    169 HG5        -19.6360     3.2770     1.1280 hc         1 XZW       0.039200
    170 HCF        -20.0180     4.9490     1.5250 hc         1 XZW       0.039200
    171 HG6        -19.1270     4.7320    -0.8230 hc         1 XZW       0.037200
    172 HCG        -20.7580     5.3970    -0.8070 hc         1 XZW       0.037200
    173 HG7        -19.9890     2.4730    -1.4070 hc         1 XZW       0.039200
    174 HCH        -20.5880     3.6510    -2.5700 hc         1 XZW       0.039200
    175 HCI        -22.7910     3.7550    -1.4240 hc         1 XZW       0.040700
    176 HG8        -22.3990     2.0910    -1.8380 hc         1 XZW       0.040700
    177 HCN        -22.6620    -0.3140    -0.0170 ha         1 XZW       0.130000
    178 HCJ        -26.1170     2.1350    -0.6430 ha         1 XZW       0.130000
    179 HHG        -29.0950     1.5960    -2.6550 h1         1 XZW       0.041367
    180 HDN        -28.3910     1.8410    -1.0450 h1         1 XZW       0.041367
    181 HHF        -27.5820     2.5100    -2.4880 h1         1 XZW       0.041367
    182 HHC        -27.3730    -3.0990    -3.7640 h1         1 XZW       0.046367
    183 HDJ        -28.0040    -2.0600    -2.4730 h1         1 XZW       0.046367
    184 HHB        -27.4050    -1.3440    -3.9990 h1         1 XZW       0.046367
    185 HHE        -21.8470    -3.6250    -1.3320 h1         1 XZW       0.041367
    186 HDL        -21.4600    -1.8920    -1.3170 h1         1 XZW       0.041367
    187 HHD        -22.2450    -2.6490     0.0970 h1         1 XZW       0.041367
@<TRIPOS>BOND
     1     1     2 1   
     2     1     3 1   
     3     1    97 1   
     4     1    98 1   
     5     2     3 1   
     6     2    99 1   
     7     2   100 1   
     8     3     4 1   
     9     3     5 1   
    10     5     6 2   
    11     5     7 1   
    12     7     8 1   
    13     7   101 1   
    14     8     9 1   
    15     8    13 1   
    16     8   102 1   
    17     9    10 1   
    18     9    11 1   
    19     9    12 1   
    20    10   103 1   
    21    10   104 1   
    22    10   105 1   
    23    11   106 1   
    24    11   107 1   
    25    11   108 1   
    26    12   109 1   
    27    12   110 1   
    28    12   111 1   
    29    13    14 2   
    30    13    15 1   
    31    15    16 1   
    32    15    20 1   
    33    16    17 1   
    34    16   112 1   
    35    16   113 1   
    36    17    18 1   
    37    17    19 1   
    38    17   114 1   
    39    18   115 1   
    40    19    20 1   
    41    19   116 1   
    42    19   117 1   
    43    20    21 1   
    44    20   118 1   
    45    21    22 2   
    46    21    23 1   
    47    23    24 1   
    48    23   119 1   
    49    24    25 1   
    50    24   120 1   
    51    24   121 1   
    52    25    26 ar  
    53    25    36 ar  
    54    26    27 ar  
    55    26   122 1   
    56    27    28 ar  
    57    27   123 1   
    58    28    29 1   
    59    28    35 ar  
    60    29    30 1   
    61    29    33 2   
    62    30    31 1   
    63    31    32 2   
    64    31   124 1   
    65    32    33 1   
    66    33    34 1   
    67    34   125 1   
    68    34   126 1   
    69    34   127 1   
    70    35    36 ar  
    71    35   128 1   
    72    36    37 1   
    73    37    38 1   
    74    38    39 1   
    75    38   129 1   
    76    38   130 1   
    77    39    40 1   
    78    39   131 1   
    79    39   132 1   
    80    40    41 1   
    81    40   133 1   
    82    40   134 1   
    83    41    42 1   
    84    41    43 1   
    85    42    45 2   
    86    42   135 1   
    87    43    44 2   
    88    44    45 1   
    89    45    46 1   
    90    46    47 1   
    91    46   136 1   
    92    46   137 1   
    93    47    48 1   
    94    48    49 ar  
    95    48    51 ar  
    96    49    50 ar  
    97    49   138 1   
    98    50    53 ar  
    99    50   139 1   
   100    51    52 ar  
   101    51   140 1   
   102    52    53 ar  
   103    52   141 1   
   104    53    54 1   
   105    54    55 1   
   106    54    67 1   
   107    54   142 1   
   108    55    56 1   
   109    55   143 1   
   110    55   144 1   
   111    56    57 1   
   112    56   145 1   
   113    56   146 1   
   114    57    58 ar  
   115    57    59 ar  
   116    58    64 ar  
   117    58   147 1   
   118    59    60 ar  
   119    59   148 1   
   120    60    61 ar  
   121    60   149 1   
   122    61    62 1   
   123    61    64 ar  
   124    62    63 1   
   125    63   150 1   
   126    63   151 1   
   127    63   152 1   
   128    64    65 1   
   129    65    66 1   
   130    66   153 1   
   131    66   154 1   
   132    66   155 1   
   133    67    68 1   
   134    68    69 2   
   135    68    70 1   
   136    70    71 1   
   137    70    75 1   
   138    70   156 1   
   139    71    72 1   
   140    71   157 1   
   141    71   158 1   
   142    72    73 1   
   143    72   159 1   
   144    72   160 1   
   145    73    74 1   
   146    73   161 1   
   147    73   162 1   
   148    74    75 1   
   149    74   163 1   
   150    74   164 1   
   151    75    76 1   
   152    76    77 2   
   153    76    78 1   
   154    78    79 1   
   155    78    85 1   
   156    78   165 1   
   157    79    80 1   
   158    79    84 1   
   159    79   166 1   
   160    80    81 1   
   161    80   167 1   
   162    80   168 1   
   163    81    82 1   
   164    81   169 1   
   165    81   170 1   
   166    82    83 1   
   167    82   171 1   
   168    82   172 1   
   169    83    84 1   
   170    83   173 1   
   171    83   174 1   
   172    84   175 1   
   173    84   176 1   
   174    85    86 ar  
   175    85    87 ar  
   176    86    94 ar  
   177    86   177 1   
   178    87    88 ar  
   179    87   178 1   
   180    88    89 1   
   181    88    91 ar  
   182    89    90 1   
   183    90   179 1   
   184    90   180 1   
   185    90   181 1   
   186    91    92 1   
   187    91    94 ar  
   188    92    93 1   
   189    93   182 1   
   190    93   183 1   
   191    93   184 1   
   192    94    95 1   
   193    95    96 1   
   194    96   185 1   
   195    96   186 1   
   196    96   187 1   
@<TRIPOS>SUBSTRUCTURE
     1 XZW         1 TEMP              0 ****  ****    0 ROOT
