@<TRIPOS>MOLECULE
XZW
  187   196     1     0     0
SMALL
abcg2


@<TRIPOS>ATOM
      1 CAY        -30.8380    -6.8930    -1.3060 cx         1 XZW      -0.111400
      2 CAZ        -30.4340    -5.4710    -1.5990 cx         1 XZW      -0.111400
      3 CAV        -31.6730    -5.7530    -0.8130 cx         1 XZW       0.020000
      4 FAX        -31.6190    -5.5030     0.5540 f          1 XZW      -0.238000
      5 CAU        -33.0230    -5.4960    -1.4060 c          1 XZW       0.620100
      6 OAW        -33.1980    -5.6060    -2.6190 o          1 XZW      -0.617100
      7 NAP        -33.9800    -5.1620    -0.5230 ns         1 XZW      -0.476900
      8 CAO        -35.3050    -4.7300    -0.9250 c3         1 XZW       0.045700
      9 CAQ        -36.4330    -5.5530    -0.2250 c3         1 XZW      -0.045000
     10 CAS        -36.2850    -7.0140    -0.6710 c3         1 XZW      -0.090100
     11 CAT        -36.3340    -5.4730     1.3040 c3         1 XZW      -0.090100
     12 CAR        -37.8000    -5.0250    -0.6740 c3         1 XZW      -0.090100
     13 CAM        -35.4060    -3.2270    -0.6510 c          1 XZW       0.594100
     14 OAN        -34.9540    -2.7590     0.3980 o          1 XZW      -0.616100
     15 N          -36.0030    -2.4400    -1.5630 n          1 XZW      -0.386800
     16 CD1        -36.4110    -2.7770    -2.9330 c5         1 XZW       0.072000
     17 CG         -36.2760    -1.4460    -3.6690 c5         1 XZW       0.151300
     18 OD2        -34.9200    -1.1720    -4.0230 oh         1 XZW      -0.658000
     19 CB         -36.6930    -0.4370    -2.6080 c5         1 XZW      -0.081400
     20 CA         -36.0890    -1.0020    -1.3080 c5         1 XZW       0.030700
     21 C          -36.9750    -0.6840    -0.1060 c          1 XZW       0.598100
     22 O          -37.9960    -1.3250     0.1340 o          1 XZW      -0.604100
     23 NAC        -36.5700     0.3770     0.6140 ns         1 XZW      -0.492900
     24 CAB        -37.3310     0.9490     1.7030 c3         1 XZW       0.154300
     25 CAA        -38.1440     2.1630     1.3150 ca         1 XZW      -0.114300
     26 CBB        -38.3580     2.5460    -0.0000 ca         1 XZW      -0.070000
     27 CBA        -39.0950     3.6820    -0.3170 ca         1 XZW      -0.131000
     28 CBE        -39.6420     4.4710     0.6960 ca         1 XZW       0.026000
     29 CBH        -40.4060     5.6820     0.3790 cc         1 XZW      -0.175000
     30 SBG        -41.4410     5.7440    -1.0140 ss         1 XZW      -0.035400
     31 CBK        -41.7970     7.3890    -0.6670 cc         1 XZW       0.414300
     32 NBJ        -41.2010     7.8620     0.3900 nd         1 XZW      -0.638000
     33 CBI        -40.4090     6.9130     0.9990 cd         1 XZW       0.296300
     34 CBF        -39.6380     7.3010     2.2240 c3         1 XZW      -0.119400
     35 CBD        -39.4420     4.0890     2.0300 ca         1 XZW      -0.172000
     36 CBC        -38.7060     2.9490     2.3340 ca         1 XZW       0.147100
     37 OAH        -38.4790     2.5170     3.6040 os         1 XZW      -0.356100
     38 CBM        -38.7540     3.4140     4.6890 c3         1 XZW       0.168600
     39 CBN        -38.2770     2.7660     5.9780 c3         1 XZW      -0.095400
     40 CBL        -36.8310     3.0440     6.3820 c3         1 XZW       0.088600
     41 NDD        -35.8240     2.4830     5.4820 na         1 XZW       0.117800
     42 CDH        -35.0110     1.4300     5.7120 cc         1 XZW      -0.194000
     43 NDG        -35.5460     3.0410     4.2970 nc         1 XZW      -0.197800
     44 NDF        -34.5840     2.3480     3.7480 nd         1 XZW      -0.338000
     45 CDE        -34.2190     1.3450     4.5910 cd         1 XZW       0.196300
     46 CBP        -33.1600     0.3490     4.2780 c3         1 XZW       0.149300
     47 OBO        -31.9840     1.0530     3.8620 os         1 XZW      -0.338100
     48 CDA        -30.8630     0.3270     3.5880 ca         1 XZW       0.143100
     49 CDB        -30.7590    -1.0560     3.7320 ca         1 XZW      -0.173500
     50 CDC        -29.5600    -1.6910     3.4070 ca         1 XZW      -0.057500
     51 CCZ        -29.7680     1.0570     3.1160 ca         1 XZW      -0.173500
     52 CCY        -28.5990     0.4070     2.7710 ca         1 XZW      -0.057500
     53 CCP        -28.4770    -0.9770     2.9130 ca         1 XZW      -0.130300
     54 CCO        -27.2130    -1.6700     2.4930 c3         1 XZW       0.227600
     55 CCQ        -27.0110    -1.6650     0.9790 c3         1 XZW      -0.088400
     56 CCR        -28.0070    -2.5850     0.2610 c3         1 XZW      -0.027100
     57 CCS        -27.6960    -4.0510     0.4210 ca         1 XZW      -0.083300
     58 CCX        -26.6000    -4.6120    -0.2480 ca         1 XZW      -0.157000
     59 CCT        -28.4600    -4.8690     1.2370 ca         1 XZW      -0.110000
     60 CCU        -28.1630    -6.2270     1.3770 ca         1 XZW      -0.168000
     61 CCV        -27.0910    -6.7850     0.6980 ca         1 XZW       0.107100
     62 ODO        -26.7320    -8.0980     0.7550 os         1 XZW      -0.329100
     63 CDP        -27.5640    -8.9780     1.5070 c3         1 XZW       0.146900
     64 CCW        -26.2930    -5.9590    -0.1240 ca         1 XZW       0.114100
     65 ODQ        -25.2430    -6.5690    -0.7410 os         1 XZW      -0.331100
     66 CDR        -24.5580    -5.8470    -1.7630 c3         1 XZW       0.146900
     67 OBX        -26.1180    -0.9140     3.1000 os         1 XZW      -0.452100
     68 CBW        -24.9640    -1.5200     3.3500 c          1 XZW       0.578100
     69 OBY        -24.7540    -2.7020     3.1820 o          1 XZW      -0.484000
     70 CBR        -23.9180    -0.5700     3.9320 c6         1 XZW       0.052700
     71 CBS        -23.8430    -0.7300     5.4550 c6         1 XZW      -0.077400
     72 CBT        -25.0460    -0.1100     6.1500 c6         1 XZW      -0.076400
     73 CBU        -25.1220     1.3700     5.7880 c6         1 XZW      -0.085400
     74 CBV        -25.1220     1.6260     4.2840 c6         1 XZW       0.109000
     75 NBQ        -24.1240     0.8310     3.5470 n          1 XZW      -0.394800
     76 CBZ        -23.5950     1.2120     2.3490 c          1 XZW       0.603100
     77 OCA        -22.9270     0.4310     1.6680 o          1 XZW      -0.613100
     78 CCB        -23.9090     2.6190     1.8220 c3         1 XZW      -0.077400
     79 CCD        -22.7800     3.1430     0.9150 c6         1 XZW      -0.047700
     80 CCE        -21.4790     3.3170     1.7050 c6         1 XZW      -0.071900
     81 CCF        -20.3430     3.7910     0.8000 c6         1 XZW      -0.071900
     82 CCG        -20.6930     5.1160     0.1200 c6         1 XZW      -0.074400
     83 CCH        -22.0400     5.0500    -0.6040 c6         1 XZW      -0.071900
     84 CCI        -23.1650     4.4720     0.2580 c6         1 XZW      -0.071900
     85 CCC        -25.2550     2.5610     1.1150 ca         1 XZW      -0.064300
     86 CCN        -25.4250     1.7410    -0.0040 ca         1 XZW      -0.150000
     87 CCJ        -26.3210     3.3310     1.5470 ca         1 XZW      -0.150000
     88 CCK        -27.5460     3.2940     0.8810 ca         1 XZW       0.085100
     89 ODM        -28.5830     4.0740     1.3450 os         1 XZW      -0.351100
     90 CDN        -28.5430     5.4320     0.8860 c3         1 XZW       0.146400
     91 CCL        -27.7360     2.4640    -0.2240 ca         1 XZW       0.102100
     92 ODI        -28.8840     2.3770    -0.9530 os         1 XZW      -0.346100
     93 CDJ        -30.1540     2.3630    -0.2830 c3         1 XZW       0.154900
     94 CCM        -26.6420     1.6890    -0.6690 ca         1 XZW       0.085100
     95 ODK        -26.8740     0.9010    -1.7560 os         1 XZW      -0.351100
     96 CDL        -25.7450     0.4370    -2.4980 c3         1 XZW       0.146400
     97 HGS        -31.2520    -7.4960    -2.1020 hc         1 XZW       0.095200
     98 HAY        -30.2760    -7.4190    -0.5460 hc         1 XZW       0.095200
     99 HGT        -29.6080    -5.0640    -1.0340 hc         1 XZW       0.095200
    100 HAZ        -30.5740    -5.0860    -2.5990 hc         1 XZW       0.095200
    101 HAP        -33.7000    -4.9820     0.4290 hn         1 XZW       0.344500
    102 HAO        -35.3770    -4.9280    -1.9900 h1         1 XZW       0.085700
    103 HGP        -37.0360    -7.6300    -0.1730 hc         1 XZW       0.041589
    104 HAS        -36.4250    -7.1080    -1.7500 hc         1 XZW       0.041589
    105 HGO        -35.3010    -7.4080    -0.4120 hc         1 XZW       0.041589
    106 HGR        -37.1380    -6.0630     1.7470 hc         1 XZW       0.041589
    107 HAT        -35.3890    -5.8790     1.6700 hc         1 XZW       0.041589
    108 HGQ        -36.4280    -4.4470     1.6570 hc         1 XZW       0.041589
    109 HAR        -38.5900    -5.6120    -0.2030 hc         1 XZW       0.041589
    110 HGM        -37.9430    -3.9810    -0.3930 hc         1 XZW       0.041589
    111 HGN        -37.9190    -5.1080    -1.7560 hc         1 XZW       0.041589
    112 HD1        -37.4470    -3.1210    -2.9590 h1         1 XZW       0.063700
    113 HGL        -35.7740    -3.5440    -3.3660 h1         1 XZW       0.063700
    114 HG         -36.9180    -1.4140    -4.5520 h1         1 XZW       0.055700
    115 HD2        -34.6090    -1.8690    -4.6140 ho         1 XZW       0.449000
    116 HB1        -36.3420     0.5690    -2.8240 hc         1 XZW       0.072200
    117 HB2        -37.7810    -0.4230    -2.5380 hc         1 XZW       0.072200
    118 HA         -35.0870    -0.6040    -1.1370 h1         1 XZW       0.080700
    119 HHL        -35.7360     0.8610     0.3190 hn         1 XZW       0.321500
    120 HAB        -37.9850     0.1710     2.0970 h1         1 XZW       0.079200
    121 HAC        -36.6450     1.2240     2.5030 h1         1 XZW       0.079200
    122 HBB        -37.9210     1.9610    -0.7980 ha         1 XZW       0.115000
    123 HBA        -39.2210     3.9650    -1.3540 ha         1 XZW       0.118000
    124 HBK        -42.4670     7.9610    -1.2940 h5         1 XZW       0.053100
    125 HBF        -39.6940     8.3800     2.3580 hc         1 XZW       0.050700
    126 HGU        -40.0480     6.8340     3.1220 hc         1 XZW       0.050700
    127 HGV        -38.5920     6.9990     2.1520 hc         1 XZW       0.050700
    128 HBD        -39.8820     4.6720     2.8200 ha         1 XZW       0.119000
    129 HBM        -38.2490     4.3650     4.5040 h1         1 XZW       0.045200
    130 HGX        -39.8310     3.5900     4.7440 h1         1 XZW       0.045200
    131 HBN        -38.8970     3.1450     6.7940 hc         1 XZW       0.068200
    132 HGY        -38.4550     1.6900     5.9210 hc         1 XZW       0.068200
    133 HGW        -36.6400     2.6060     7.3590 h1         1 XZW       0.067700
    134 HBL        -36.6510     4.1170     6.4420 h1         1 XZW       0.067700
    135 HDH        -35.0570     0.8480     6.6160 h4         1 XZW       0.165000
    136 HGZ        -33.4740    -0.3250     3.4750 h1         1 XZW       0.050700
    137 HBP        -32.9550    -0.2510     5.1680 h1         1 XZW       0.050700
    138 HDB        -31.5870    -1.6440     4.0980 ha         1 XZW       0.128500
    139 HDC        -29.4840    -2.7640     3.5300 ha         1 XZW       0.121000
    140 HCZ        -29.8540     2.1280     2.9970 ha         1 XZW       0.128500
    141 HCY        -27.7700     0.9840     2.3870 ha         1 XZW       0.121000
    142 HCO        -27.1810    -2.6860     2.8840 h1         1 XZW       0.077700
    143 HG9        -25.9890    -1.9760     0.7530 hc         1 XZW       0.061200
    144 HCQ        -27.1380    -0.6400     0.6330 hc         1 XZW       0.061200
    145 HHA        -28.0140    -2.3220    -0.8000 hc         1 XZW       0.054200
    146 HCR        -29.0160    -2.3850     0.6260 hc         1 XZW       0.054200
    147 HCX        -25.9940    -3.9810    -0.8830 ha         1 XZW       0.118000
    148 HCT        -29.3160    -4.4620     1.7580 ha         1 XZW       0.116000
    149 HCU        -28.7900    -6.8430     2.0040 ha         1 XZW       0.118000
    150 HDP        -27.1290    -9.9680     1.3950 h1         1 XZW       0.039033
    151 HHH        -27.5790    -8.7010     2.5640 h1         1 XZW       0.039033
    152 HHI        -28.5860    -8.9780     1.1190 h1         1 XZW       0.039033
    153 HHK        -23.8750    -6.5560    -2.2250 h1         1 XZW       0.039700
    154 HDR        -25.2600    -5.4670    -2.5090 h1         1 XZW       0.039700
    155 HHJ        -23.9900    -5.0120    -1.3450 h1         1 XZW       0.039700
    156 HBR        -22.9740    -0.8870     3.4990 h1         1 XZW       0.110700
    157 HG0        -23.7380    -1.7910     5.6870 hc         1 XZW       0.060200
    158 HBS        -22.9280    -0.2350     5.7900 hc         1 XZW       0.060200
    159 HBT        -25.9650    -0.6230     5.8490 hc         1 XZW       0.051200
    160 HG1        -24.9580    -0.2240     7.2320 hc         1 XZW       0.051200
    161 HG2        -24.2730     1.8880     6.2450 hc         1 XZW       0.046700
    162 HBU        -26.0310     1.8250     6.1900 hc         1 XZW       0.046700
    163 HG3        -24.9190     2.6770     4.1190 h1         1 XZW       0.052200
    164 HBV        -26.1090     1.4090     3.8780 h1         1 XZW       0.052200
    165 HCB        -23.9990     3.3170     2.6520 hc         1 XZW       0.063700
    166 HCD        -22.6050     2.4040     0.1290 hc         1 XZW       0.069700
    167 HG4        -21.6470     4.0580     2.4960 hc         1 XZW       0.040700
    168 HCE        -21.2040     2.3800     2.1920 hc         1 XZW       0.040700
    169 HG5        -20.1490     3.0270     0.0390 hc         1 XZW       0.039200
    170 HCF        -19.4190     3.9010     1.3740 hc         1 XZW       0.039200
    171 HG6        -19.9070     5.4000    -0.5850 hc         1 XZW       0.037200
    172 HCG        -20.7340     5.9000     0.8850 hc         1 XZW       0.037200
    173 HG7        -21.9320     4.4350    -1.5060 hc         1 XZW       0.039200
    174 HCH        -22.3240     6.0460    -0.9550 hc         1 XZW       0.039200
    175 HCI        -23.4340     5.1900     1.0430 hc         1 XZW       0.040700
    176 HG8        -24.0600     4.3460    -0.3540 hc         1 XZW       0.040700
    177 HCN        -24.6020     1.1300    -0.3420 ha         1 XZW       0.130000
    178 HCJ        -26.2240     3.9790     2.4090 ha         1 XZW       0.130000
    179 HHG        -29.4070     5.9310     1.3210 h1         1 XZW       0.041367
    180 HDN        -27.6270     5.9260     1.2180 h1         1 XZW       0.041367
    181 HHF        -28.6050     5.4700    -0.2050 h1         1 XZW       0.041367
    182 HHC        -30.8610     1.9770    -1.0150 h1         1 XZW       0.046367
    183 HDJ        -30.1240     1.7040     0.5860 h1         1 XZW       0.046367
    184 HHB        -30.4550     3.3600     0.0300 h1         1 XZW       0.046367
    185 HHE        -26.1540    -0.0520    -3.3790 h1         1 XZW       0.041367
    186 HDL        -25.1140     1.2780    -2.7990 h1         1 XZW       0.041367
    187 HHD        -25.1440    -0.2820    -1.9370 h1         1 XZW       0.041367
@<TRIPOS>BOND
     1     1     2 1   
     2     1     3 1   
     3     1    97 1   
     4     1    98 1   
     5     2     3 1   
     6     2    99 1   
     7     2   100 1   
     8     3     4 1   
     9     3     5 1   
    10     5     6 2   
    11     5     7 1   
    12     7     8 1   
    13     7   101 1   
    14     8     9 1   
    15     8    13 1   
    16     8   102 1   
    17     9    10 1   
    18     9    11 1   
    19     9    12 1   
    20    10   103 1   
    21    10   104 1   
    22    10   105 1   
    23    11   106 1   
    24    11   107 1   
    25    11   108 1   
    26    12   109 1   
    27    12   110 1   
    28    12   111 1   
    29    13    14 2   
    30    13    15 1   
    31    15    16 1   
    32    15    20 1   
    33    16    17 1   
    34    16   112 1   
    35    16   113 1   
    36    17    18 1   
    37    17    19 1   
    38    17   114 1   
    39    18   115 1   
    40    19    20 1   
    41    19   116 1   
    42    19   117 1   
    43    20    21 1   
    44    20   118 1   
    45    21    22 2   
    46    21    23 1   
    47    23    24 1   
    48    23   119 1   
    49    24    25 1   
    50    24   120 1   
    51    24   121 1   
    52    25    26 ar  
    53    25    36 ar  
    54    26    27 ar  
    55    26   122 1   
    56    27    28 ar  
    57    27   123 1   
    58    28    29 1   
    59    28    35 ar  
    60    29    30 1   
    61    29    33 2   
    62    30    31 1   
    63    31    32 2   
    64    31   124 1   
    65    32    33 1   
    66    33    34 1   
    67    34   125 1   
    68    34   126 1   
    69    34   127 1   
    70    35    36 ar  
    71    35   128 1   
    72    36    37 1   
    73    37    38 1   
    74    38    39 1   
    75    38   129 1   
    76    38   130 1   
    77    39    40 1   
    78    39   131 1   
    79    39   132 1   
    80    40    41 1   
    81    40   133 1   
    82    40   134 1   
    83    41    42 1   
    84    41    43 1   
    85    42    45 2   
    86    42   135 1   
    87    43    44 2   
    88    44    45 1   
    89    45    46 1   
    90    46    47 1   
    91    46   136 1   
    92    46   137 1   
    93    47    48 1   
    94    48    49 ar  
    95    48    51 ar  
    96    49    50 ar  
    97    49   138 1   
    98    50    53 ar  
    99    50   139 1   
   100    51    52 ar  
   101    51   140 1   
   102    52    53 ar  
   103    52   141 1   
   104    53    54 1   
   105    54    55 1   
   106    54    67 1   
   107    54   142 1   
   108    55    56 1   
   109    55   143 1   
   110    55   144 1   
   111    56    57 1   
   112    56   145 1   
   113    56   146 1   
   114    57    58 ar  
   115    57    59 ar  
   116    58    64 ar  
   117    58   147 1   
   118    59    60 ar  
   119    59   148 1   
   120    60    61 ar  
   121    60   149 1   
   122    61    62 1   
   123    61    64 ar  
   124    62    63 1   
   125    63   150 1   
   126    63   151 1   
   127    63   152 1   
   128    64    65 1   
   129    65    66 1   
   130    66   153 1   
   131    66   154 1   
   132    66   155 1   
   133    67    68 1   
   134    68    69 2   
   135    68    70 1   
   136    70    71 1   
   137    70    75 1   
   138    70   156 1   
   139    71    72 1   
   140    71   157 1   
   141    71   158 1   
   142    72    73 1   
   143    72   159 1   
   144    72   160 1   
   145    73    74 1   
   146    73   161 1   
   147    73   162 1   
   148    74    75 1   
   149    74   163 1   
   150    74   164 1   
   151    75    76 1   
   152    76    77 2   
   153    76    78 1   
   154    78    79 1   
   155    78    85 1   
   156    78   165 1   
   157    79    80 1   
   158    79    84 1   
   159    79   166 1   
   160    80    81 1   
   161    80   167 1   
   162    80   168 1   
   163    81    82 1   
   164    81   169 1   
   165    81   170 1   
   166    82    83 1   
   167    82   171 1   
   168    82   172 1   
   169    83    84 1   
   170    83   173 1   
   171    83   174 1   
   172    84   175 1   
   173    84   176 1   
   174    85    86 ar  
   175    85    87 ar  
   176    86    94 ar  
   177    86   177 1   
   178    87    88 ar  
   179    87   178 1   
   180    88    89 1   
   181    88    91 ar  
   182    89    90 1   
   183    90   179 1   
   184    90   180 1   
   185    90   181 1   
   186    91    92 1   
   187    91    94 ar  
   188    92    93 1   
   189    93   182 1   
   190    93   183 1   
   191    93   184 1   
   192    94    95 1   
   193    95    96 1   
   194    96   185 1   
   195    96   186 1   
   196    96   187 1   
@<TRIPOS>SUBSTRUCTURE
     1 XZW         1 TEMP              0 ****  ****    0 ROOT
