@<TRIPOS>MOLECULE
XZX
   23    23     1     0     0
SMALL
abcg2


@<TRIPOS>ATOM
      1 C01        -18.0390    -5.7720   -34.8340 c3         1 XZX      -0.089100
      2 C02        -19.4990    -5.6430   -35.2430 c3         1 XZX       0.090300
      3 C04        -20.3480    -5.4570   -33.9840 c          1 XZX       0.572100
      4 C07        -21.5430    -3.6610   -32.7580 ca         1 XZX       0.004000
      5 C08        -21.8540    -4.3690   -31.5970 ca         1 XZX      -0.151500
      6 C09        -22.5710    -3.7280   -30.6000 ca         1 XZX       0.153500
      7 C11        -23.0010    -2.4170   -30.7040 ca         1 XZX      -0.128000
      8 C12        -22.6780    -1.7400   -31.8700 ca         1 XZX       0.153500
      9 C14        -21.9620    -2.3340   -32.8910 ca         1 XZX      -0.151500
     10 N06        -20.8120    -4.1950   -33.8130 ns         1 XZX      -0.142000
     11 O03        -19.6190    -4.5730   -36.1490 oh         1 XZX      -0.660000
     12 O05        -20.5290    -6.3830   -33.2160 o          1 XZX      -0.572100
     13 CL10       -22.9400    -4.6090   -29.1570 cl         1 XZX      -0.190500
     14 CL13       -23.1890    -0.0980   -32.0490 cl         1 XZX      -0.190500
     15 H1         -17.9070    -6.5940   -34.1340 hc         1 XZX       0.056367
     16 H2         -17.4210    -5.9700   -35.7090 hc         1 XZX       0.056367
     17 H3         -17.6830    -4.8570   -34.3580 hc         1 XZX       0.056367
     18 H4         -19.8260    -6.5850   -35.6970 h1         1 XZX       0.065700
     19 H5         -21.5430    -5.3920   -31.4640 ha         1 XZX       0.148500
     20 H6         -23.5610    -1.9410   -29.9130 ha         1 XZX       0.147000
     21 H7         -21.7240    -1.7750   -33.7870 ha         1 XZX       0.148500
     22 H8         -20.5870    -3.5570   -34.5660 hn         1 XZX       0.172000
     23 H9         -20.4020    -4.7060   -36.6940 ho         1 XZX       0.452000
@<TRIPOS>BOND
     1     1     2 1   
     2     1    15 1   
     3     1    16 1   
     4     1    17 1   
     5     2     3 1   
     6     2    11 1   
     7     2    18 1   
     8     3    10 1   
     9     3    12 2   
    10     4     5 ar  
    11     4     9 ar  
    12     4    10 1   
    13     5     6 ar  
    14     5    19 1   
    15     6     7 ar  
    16     6    13 1   
    17     7     8 ar  
    18     7    20 1   
    19     8     9 ar  
    20     8    14 1   
    21     9    21 1   
    22    10    22 1   
    23    11    23 1   
@<TRIPOS>SUBSTRUCTURE
     1 XZX         1 TEMP              0 ****  ****    0 ROOT
