@<TRIPOS>MOLECULE
XZX
   23    23     1     0     0
SMALL
No Charge or Current Charge


@<TRIPOS>ATOM
      1 C01        -17.9570    -5.6570   -34.9450 c3         1 XZX      -0.089100
      2 C02        -19.4650    -5.7120   -35.2690 c3         1 XZX       0.090300
      3 C04        -20.3300    -5.5450   -33.9770 c          1 XZX       0.572100
      4 C07        -21.5230    -3.6620   -32.6920 ca         1 XZX       0.004000
      5 C08        -21.9480    -4.3710   -31.5460 ca         1 XZX      -0.151500
      6 C09        -22.7090    -3.7280   -30.5550 ca         1 XZX       0.153500
      7 C11        -23.0530    -2.3760   -30.6910 ca         1 XZX      -0.128000
      8 C12        -22.6310    -1.6650   -31.8220 ca         1 XZX       0.153500
      9 C14        -21.8700    -2.3030   -32.8150 ca         1 XZX      -0.151500
     10 N06        -20.7480    -4.2420   -33.7330 ns         1 XZX      -0.142000
     11 O03        -19.7560    -4.7260   -36.2930 oh         1 XZX      -0.660000
     12 O05        -20.6360    -6.5060   -33.2780 o          1 XZX      -0.572100
     13 Cl10       -23.2310    -4.6230   -29.1350 cl         1 XZX      -0.190500
     14 Cl13       -23.0560     0.0320   -31.9990 cl         1 XZX      -0.190500
     15 H1         -17.6920    -6.4260   -34.2090 hc         1 XZX       0.056367
     16 H2         -17.3610    -5.8320   -35.8480 hc         1 XZX       0.056367
     17 H3         -17.6810    -4.6780   -34.5340 hc         1 XZX       0.056367
     18 H4         -19.6840    -6.7180   -35.6540 h1         1 XZX       0.065700
     19 H5         -21.6970    -5.4150   -31.3980 ha         1 XZX       0.148500
     20 H6         -23.6420    -1.8820   -29.9230 ha         1 XZX       0.147000
     21 H7         -21.5520    -1.7340   -33.6850 ha         1 XZX       0.148500
     22 H8         -20.4330    -3.5810   -34.4320 hn         1 XZX       0.172000
     23 H9         -20.5810    -5.0060   -36.7550 ho         1 XZX       0.452000
@<TRIPOS>BOND
     1     1     2 1   
     2     1    15 1   
     3     1    16 1   
     4     1    17 1   
     5     2     3 1   
     6     2    11 1   
     7     2    18 1   
     8     3    10 1   
     9     3    12 2   
    10     4     5 ar  
    11     4     9 ar  
    12     4    10 1   
    13     5     6 ar  
    14     5    19 1   
    15     6     7 ar  
    16     6    13 1   
    17     7     8 ar  
    18     7    20 1   
    19     8     9 ar  
    20     8    14 1   
    21     9    21 1   
    22    10    22 1   
    23    11    23 1   
@<TRIPOS>SUBSTRUCTURE
     1 XZX         1 TEMP              0 ****  ****    0 ROOT
