@<TRIPOS>MOLECULE
XZY
   35    36     1     0     0
SMALL
No Charge or Current Charge


@<TRIPOS>ATOM
      1 N1         -15.5390    16.8590    25.8260 ns         1 XZY      -0.524900
      2 N3         -19.1780    13.2300    25.3210 n          1 XZY      -0.407800
      3 C4         -18.2800    14.7190    27.1670 c6         1 XZY       0.086500
      4 C5         -18.8580    13.3410    26.7700 c6         1 XZY       0.089000
      5 C6         -20.1290    12.2930    24.8330 c          1 XZY       0.551600
      6 C7         -21.4170    12.1420    25.5830 cc         1 XZY       0.061500
      7 C8         -22.4010    11.2290    25.2790 cd         1 XZY      -0.101000
      8 C10        -23.1030    12.5110    26.9470 cc         1 XZY       0.220000
      9 C1         -16.3740    16.2840    26.7540 c          1 XZY       0.664100
     10 C11        -17.9920    13.5630    24.4910 c6         1 XZY       0.089000
     11 C12        -17.3390    14.9260    24.8350 c6         1 XZY       0.086500
     12 C2         -14.6560    18.0160    26.0850 c3         1 XZY       0.051000
     13 C3         -15.3350    19.3900    25.8590 c3         1 XZY       0.268000
     14 C9         -23.4780    11.4600    26.1630 cd         1 XZY      -0.177000
     15 F1         -16.3810    19.5700    26.6970 f          1 XZY      -0.114667
     16 F2         -14.4550    20.3940    26.0730 f          1 XZY      -0.114667
     17 F3         -15.7910    19.5010    24.5900 f          1 XZY      -0.114667
     18 N2         -17.1860    15.2280    26.2920 n          1 XZY      -0.423800
     19 O1         -16.4000    16.6650    27.9140 o          1 XZY      -0.621100
     20 O2         -19.9050    11.6630    23.8040 o          1 XZY      -0.583100
     21 O3         -21.8520    12.9620    26.6110 os         1 XZY      -0.223000
     22 Cl1        -23.9420    13.3220    28.2310 cl         1 XZY      -0.094000
     23 H1         -15.5740    16.4790    24.8890 hn         1 XZY       0.323500
     24 H4         -17.9240    14.6530    28.2050 h1         1 XZY       0.059450
     25 H5         -19.0970    15.4540    27.1550 h1         1 XZY       0.059450
     26 H7         -18.1010    12.5790    27.0060 h1         1 XZY       0.066450
     27 H6         -19.7120    13.1200    27.4160 h1         1 XZY       0.066450
     28 H8         -22.3530    10.4760    24.4980 ha         1 XZY       0.161000
     29 H10        -17.2430    12.7700    24.6250 h1         1 XZY       0.066450
     30 H11        -18.2670    13.5690    23.4260 h1         1 XZY       0.066450
     31 H13        -16.3590    14.9530    24.3380 h1         1 XZY       0.059450
     32 H12        -17.9510    15.7220    24.3880 h1         1 XZY       0.059450
     33 H2         -14.2880    17.9680    27.1180 h1         1 XZY       0.092700
     34 H3         -13.7820    17.9440    25.4240 h1         1 XZY       0.092700
     35 H9         -24.4190    10.9230    26.2100 ha         1 XZY       0.159000
@<TRIPOS>BOND
     1     1     9 1   
     2     1    12 1   
     3     1    23 1   
     4     2     4 1   
     5     2     5 1   
     6     2    10 1   
     7     3     4 1   
     8     3    18 1   
     9     3    24 1   
    10     3    25 1   
    11     4    26 1   
    12     4    27 1   
    13     5     6 1   
    14     5    20 2   
    15     6     7 2   
    16     6    21 1   
    17     7    14 1   
    18     7    28 1   
    19     8    14 2   
    20     8    21 1   
    21     8    22 1   
    22     9    18 1   
    23     9    19 2   
    24    10    11 1   
    25    10    29 1   
    26    10    30 1   
    27    11    18 1   
    28    11    31 1   
    29    11    32 1   
    30    12    13 1   
    31    12    33 1   
    32    12    34 1   
    33    13    15 1   
    34    13    16 1   
    35    13    17 1   
    36    14    35 1   
@<TRIPOS>SUBSTRUCTURE
     1 XZY         1 TEMP              0 ****  ****    0 ROOT
