@<TRIPOS>MOLECULE
XZY
   35    36     1     0     0
SMALL
bcc


@<TRIPOS>ATOM
      1 N1         -15.7610    16.8560    25.6890 ns         1 XZY      -0.591900
      2 N3         -18.9700    13.0320    25.3500 n          1 XZY      -0.474800
      3 C4         -18.4620    14.7770    26.9680 c6         1 XZY       0.086500
      4 C5         -18.7370    13.3010    26.7580 c6         1 XZY       0.089000
      5 C6         -20.0060    12.3630    24.8020 c          1 XZY       0.618600
      6 C7         -21.2650    12.2300    25.5620 cc         1 XZY       0.171200
      7 C8         -22.2240    11.2750    25.4600 cd         1 XZY      -0.184300
      8 C10        -22.8730    12.8270    26.8810 cc         1 XZY       0.329700
      9 C1         -16.5240    16.1850    26.6030 c          1 XZY       0.798100
     10 C11        -17.8220    13.3960    24.5460 c6         1 XZY       0.089000
     11 C12        -17.5140    14.8790    24.7160 c6         1 XZY       0.086500
     12 C2         -14.8120    17.8480    26.0960 c3         1 XZY       0.051000
     13 C3         -15.4020    19.2450    26.1240 c3         1 XZY       0.631900
     14 C9         -23.2780    11.6560    26.3340 cd         1 XZY      -0.260300
     15 F1         -16.4630    19.3460    26.9310 f          1 XZY      -0.235967
     16 F2         -14.4940    20.1370    26.5450 f          1 XZY      -0.235967
     17 F3         -15.8100    19.6410    24.9090 f          1 XZY      -0.235967
     18 N2         -17.3680    15.2220    26.1190 n          1 XZY      -0.490800
     19 O1         -16.4280    16.4180    27.8000 o          1 XZY      -0.621100
     20 O2         -19.9680    11.8710    23.6820 o          1 XZY      -0.583100
     21 O3         -21.6690    13.1910    26.4340 os         1 XZY      -0.311800
     22 CL1        -23.6200    13.8690    27.9830 cl         1 XZY      -0.094000
     23 H1         -15.9390    16.7840    24.7020 hn         1 XZY       0.323500
     24 H4         -18.2050    14.9490    28.0090 h1         1 XZY       0.059450
     25 H5         -19.3710    15.3480    26.7440 h1         1 XZY       0.059450
     26 H7         -17.8650    12.7180    27.0740 h1         1 XZY       0.066450
     27 H6         -19.5690    12.9870    27.3770 h1         1 XZY       0.066450
     28 H8         -22.1860    10.3940    24.8400 ha         1 XZY       0.179000
     29 H10        -16.9550    12.8030    24.8540 h1         1 XZY       0.066450
     30 H11        -18.0150    13.1900    23.4970 h1         1 XZY       0.066450
     31 H13        -16.5870    15.0620    24.1750 h1         1 XZY       0.059450
     32 H12        -18.3050    15.4720    24.2450 h1         1 XZY       0.059450
     33 H2         -14.4200    17.6120    27.0840 h1         1 XZY       0.092700
     34 H3         -13.9690    17.8510    25.4030 h1         1 XZY       0.092700
     35 H9         -24.2040    11.1400    26.5240 ha         1 XZY       0.177000
@<TRIPOS>BOND
     1     1     9 1   
     2     1    12 1   
     3     1    23 1   
     4     2     4 1   
     5     2     5 1   
     6     2    10 1   
     7     3     4 1   
     8     3    18 1   
     9     3    24 1   
    10     3    25 1   
    11     4    26 1   
    12     4    27 1   
    13     5     6 1   
    14     5    20 2   
    15     6     7 2   
    16     6    21 1   
    17     7    14 1   
    18     7    28 1   
    19     8    14 2   
    20     8    21 1   
    21     8    22 1   
    22     9    18 1   
    23     9    19 2   
    24    10    11 1   
    25    10    29 1   
    26    10    30 1   
    27    11    18 1   
    28    11    31 1   
    29    11    32 1   
    30    12    13 1   
    31    12    33 1   
    32    12    34 1   
    33    13    15 1   
    34    13    16 1   
    35    13    17 1   
    36    14    35 1   
@<TRIPOS>SUBSTRUCTURE
     1 XZY         1 TEMP              0 ****  ****    0 ROOT
