@<TRIPOS>MOLECULE
XZZ
   21    22     1     0     0
SMALL
No Charge or Current Charge


@<TRIPOS>ATOM
      1 C5           0.8530     1.0840     0.0310 ca         1 XZZ      -0.012000
      2 Cl           3.5870     0.9260     0.0740 cl         1 XZZ      -0.169000
      3 C6           1.9650     0.2260     0.0800 ca         1 XZZ       0.046000
      4 C7           1.7780    -1.1710     0.1330 ca         1 XZZ       0.201100
      5 C2          -3.0370    -0.6590     0.0490 c          1 XZZ       0.676300
      6 C3          -2.8750     0.7990    -0.0070 cc         1 XZZ      -0.341200
      7 C4          -1.6470     1.4170    -0.0150 cd         1 XZZ       0.054600
      8 O2          -4.1350    -1.1940     0.0560 o          1 XZZ      -0.480000
      9 O1          -1.8830    -1.3910     0.0940 os         1 XZZ      -0.337200
     10 CM4         -1.5470     2.9220    -0.0730 c3         1 XZZ      -0.066900
     11 C4A         -0.4580     0.5550     0.0350 ca         1 XZZ      -0.188800
     12 C8A         -0.6290    -0.8410     0.0880 ca         1 XZZ       0.221100
     13 C8           0.4790    -1.6990     0.1370 ca         1 XZZ      -0.240000
     14 O7           2.8490    -2.0190     0.1810 oh         1 XZZ      -0.504100
     15 H5           1.0230     2.1560    -0.0090 ha         1 XZZ       0.136000
     16 HM41        -2.5350     3.3950    -0.1050 hc         1 XZZ       0.056700
     17 HM42        -1.0240     3.3150     0.8060 hc         1 XZZ       0.056700
     18 HM43        -1.0000     3.2450    -0.9670 hc         1 XZZ       0.056700
     19 H3          -3.8020     1.3570    -0.0410 ha         1 XZZ       0.214000
     20 H8           0.3150    -2.7730     0.1770 ha         1 XZZ       0.143000
     21 H7           2.5140    -2.9400     0.2130 ho         1 XZZ       0.478000
@<TRIPOS>BOND
     1     1     3 ar  
     2     1    11 ar  
     3     1    15 1   
     4     2     3 1   
     5     3     4 ar  
     6     4    13 ar  
     7     4    14 1   
     8     5     6 1   
     9     5     8 2   
    10     5     9 1   
    11     6     7 2   
    12     6    19 1   
    13     7    10 1   
    14     7    11 1   
    15     9    12 1   
    16    10    16 1   
    17    10    17 1   
    18    10    18 1   
    19    11    12 ar  
    20    12    13 ar  
    21    13    20 1   
    22    14    21 1   
@<TRIPOS>SUBSTRUCTURE
     1 XZZ         1 TEMP              0 ****  ****    0 ROOT
