@<TRIPOS>MOLECULE
XZZ
   21    22     1     0     0
SMALL
bcc


@<TRIPOS>ATOM
      1 C5           0.8310     1.0740     0.0310 ca         1 XZZ      -0.030000
      2 CL           3.5180     0.8530     0.0780 cl         1 XZZ      -0.077400
      3 C6           1.9100     0.2250     0.0810 ca         1 XZZ      -0.045600
      4 C7           1.7290    -1.1670     0.1340 ca         1 XZZ       0.201100
      5 C2          -3.0140    -0.6320     0.0490 c          1 XZZ       0.751800
      6 C3          -2.8640     0.8010    -0.0080 cc         1 XZZ      -0.291200
      7 C4          -1.6540     1.4020    -0.0150 cd         1 XZZ       0.054600
      8 O2          -4.0560    -1.2400     0.0610 o          1 XZZ      -0.555500
      9 O1          -1.8690    -1.3680     0.0950 os         1 XZZ      -0.337200
     10 CM4         -1.5210     2.8860    -0.0720 c3         1 XZZ      -0.066900
     11 C4A         -0.4740     0.5720     0.0340 ca         1 XZZ      -0.188800
     12 C8A         -0.6400    -0.8120     0.0880 ca         1 XZZ       0.221100
     13 C8           0.4400    -1.6780     0.1360 ca         1 XZZ      -0.258000
     14 O7           2.8170    -1.9330     0.1800 oh         1 XZZ      -0.465100
     15 H5           0.9980     2.1420    -0.0100 ha         1 XZZ       0.154000
     16 HM41        -2.4950     3.3670    -0.1020 hc         1 XZZ       0.056700
     17 HM42        -0.9800     3.2600     0.7990 hc         1 XZZ       0.056700
     18 HM43        -0.9600     3.1930    -0.9560 hc         1 XZZ       0.056700
     19 H3          -3.7760     1.3810    -0.0450 ha         1 XZZ       0.164000
     20 H8           0.2740    -2.7490     0.1770 ha         1 XZZ       0.161000
     21 H7           2.5780    -2.8680     0.2030 ho         1 XZZ       0.439000
@<TRIPOS>BOND
     1     1     3 ar  
     2     1    11 ar  
     3     1    15 1   
     4     2     3 1   
     5     3     4 ar  
     6     4    13 ar  
     7     4    14 1   
     8     5     6 1   
     9     5     8 2   
    10     5     9 1   
    11     6     7 2   
    12     6    19 1   
    13     7    10 1   
    14     7    11 1   
    15     9    12 1   
    16    10    16 1   
    17    10    17 1   
    18    10    18 1   
    19    11    12 ar  
    20    12    13 ar  
    21    13    20 1   
    22    14    21 1   
@<TRIPOS>SUBSTRUCTURE
     1 XZZ         1 TEMP              0 ****  ****    0 ROOT
