@<TRIPOS>MOLECULE
U01
   40    42     1     0     0
SMALL
bcc


@<TRIPOS>ATOM
      1 CA           0.8290    -0.2680    -1.6330 cc         1 U01      -0.284400
      2 CA2          0.8040    -1.5460    -2.3010 c          1 U01       0.763800
      3 CA4         -0.9320    -0.7620    -3.7350 ca         1 U01       0.191100
      4 CA5         -0.9560     0.4900    -3.1260 ca         1 U01      -0.201800
      5 CA6         -0.0310     0.7090    -2.0330 cd         1 U01       0.245900
      6 CB1          1.0320    -0.0120     0.8200 ca         1 U01      -0.052300
      7 CB2          0.5300    -1.1890     1.3750 ca         1 U01      -0.121000
      8 CB3         -0.2100    -1.1870     2.5470 ca         1 U01      -0.107000
      9 CB4         -0.4530     0.0210     3.1830 ca         1 U01      -0.019900
     10 CB5          0.0370     1.2080     2.6620 ca         1 U01      -0.107000
     11 CB6          0.7720     1.1820     1.4840 ca         1 U01      -0.121000
     12 CG1          1.8040    -0.1030    -0.4840 c3         1 U01       0.054800
     13 CG2          2.8760     0.9830    -0.6990 c3         1 U01      -0.048700
     14 CG3          3.9300     0.9060     0.4030 c3         1 U01      -0.090100
     15 CG4          3.5430     0.8160    -2.0610 c3         1 U01      -0.090100
     16 CD1         -1.7800    -1.0740    -4.7900 ca         1 U01      -0.147000
     17 CD2         -2.6640    -0.1160    -5.2440 ca         1 U01      -0.075000
     18 CD3         -2.7050     1.1470    -4.6540 ca         1 U01      -0.152000
     19 CD4         -1.8590     1.4460    -3.6070 ca         1 U01      -0.082000
     20 OA2          1.5010    -2.5010    -2.0420 o          1 U01      -0.568500
     21 OA3         -0.0810    -1.7200    -3.3200 os         1 U01      -0.334200
     22 OA6         -0.0030     1.8740    -1.4030 oh         1 U01      -0.471100
     23 BR          -1.4550     0.0470     4.7860 br         1 U01      -0.107100
     24 HB2          0.7210    -2.1360     0.8830 ha         1 U01       0.140000
     25 HB3         -0.5800    -2.1190     2.9510 ha         1 U01       0.145000
     26 HB5         -0.1440     2.1530     3.1580 ha         1 U01       0.145000
     27 HB6          1.1480     2.1200     1.1000 ha         1 U01       0.140000
     28 HG1          2.3620    -1.0430    -0.4370 hc         1 U01       0.077700
     29 HG2          2.4200     1.9760    -0.6690 hc         1 U01       0.052700
     30 HG31         4.6830     1.6830     0.2650 hc         1 U01       0.035200
     31 HG32         3.5060     1.0330     1.3990 hc         1 U01       0.035200
     32 HG33         4.4420    -0.0590     0.3820 hc         1 U01       0.035200
     33 HG41         4.0000    -0.1740    -2.1520 hc         1 U01       0.035200
     34 HG42         2.8390     0.9350    -2.8850 hc         1 U01       0.035200
     35 HG43         4.3340     1.5560    -2.1940 hc         1 U01       0.035200
     36 HD1         -1.7390    -2.0570    -5.2410 ha         1 U01       0.161000
     37 HD2         -3.3280    -0.3490    -6.0660 ha         1 U01       0.143000
     38 HD3         -3.3980     1.8930    -5.0150 ha         1 U01       0.142000
     39 HD4         -1.9180     2.4380    -3.1750 ha         1 U01       0.128000
     40 HO6         -0.6540     2.5010    -1.7370 ho         1 U01       0.438000
@<TRIPOS>BOND
     1     1     2 1   
     2     1     5 2   
     3     1    12 1   
     4     2    20 2   
     5     2    21 1   
     6     3     4 ar  
     7     3    16 ar  
     8     3    21 1   
     9     4     5 1   
    10     4    19 ar  
    11     5    22 1   
    12     6     7 ar  
    13     6    11 ar  
    14     6    12 1   
    15     7     8 ar  
    16     7    24 1   
    17     8     9 ar  
    18     8    25 1   
    19     9    10 ar  
    20     9    23 1   
    21    10    11 ar  
    22    10    26 1   
    23    11    27 1   
    24    12    13 1   
    25    12    28 1   
    26    13    14 1   
    27    13    15 1   
    28    13    29 1   
    29    14    30 1   
    30    14    31 1   
    31    14    32 1   
    32    15    33 1   
    33    15    34 1   
    34    15    35 1   
    35    16    17 ar  
    36    16    36 1   
    37    17    18 ar  
    38    17    37 1   
    39    18    19 ar  
    40    18    38 1   
    41    19    39 1   
    42    22    40 1   
@<TRIPOS>SUBSTRUCTURE
     1 U01         1 TEMP              0 ****  ****    0 ROOT
