@<TRIPOS>MOLECULE
U01
   40    42     1     0     0
SMALL
No Charge or Current Charge


@<TRIPOS>ATOM
      1 CA           0.8010    -0.2810    -1.6320 cc         1 U01      -0.284400
      2 CA2          0.7880    -1.5910    -2.3490 c          1 U01       0.688300
      3 CA4         -0.9490    -0.7510    -3.8170 ca         1 U01       0.191100
      4 CA5         -0.9820     0.4940    -3.1760 ca         1 U01      -0.201800
      5 CA6         -0.0680     0.7060    -2.0490 cd         1 U01       0.245900
      6 CB1          1.0290    -0.0560     0.8720 ca         1 U01      -0.052300
      7 CB2          0.5850    -1.2460     1.4850 ca         1 U01      -0.103000
      8 CB3         -0.1200    -1.2100     2.7010 ca         1 U01      -0.089000
      9 CB4         -0.3930     0.0220     3.3150 ca         1 U01      -0.019900
     10 CB5          0.0340     1.2160     2.7150 ca         1 U01      -0.089000
     11 CB6          0.7390     1.1790     1.4990 ca         1 U01      -0.103000
     12 CG1          1.7880    -0.1550    -0.4640 c3         1 U01       0.054800
     13 CG2          2.8910     0.9330    -0.6970 c3         1 U01      -0.048700
     14 CG3          3.9490     0.9480     0.4360 c3         1 U01      -0.090100
     15 CG4          3.5910     0.7640    -2.0690 c3         1 U01      -0.090100
     16 CD1         -1.7930    -1.0290    -4.9030 ca         1 U01      -0.129000
     17 CD2         -2.6890    -0.0520    -5.3650 ca         1 U01      -0.057000
     18 CD3         -2.7340     1.2010    -4.7340 ca         1 U01      -0.134000
     19 CD4         -1.8880     1.4780    -3.6450 ca         1 U01      -0.064000
     20 OA2          1.5090    -2.5330    -2.0510 o          1 U01      -0.493000
     21 OA3         -0.0890    -1.7230    -3.3910 os         1 U01      -0.334200
     22 OA6         -0.1060     1.9070    -1.4400 oh         1 U01      -0.510100
     23 Br          -1.3530     0.0740     4.9680 br         1 U01      -0.107100
     24 HB2          0.7860    -2.2080     1.0180 ha         1 U01       0.122000
     25 HB3         -0.4550    -2.1360     3.1630 ha         1 U01       0.127000
     26 HB5         -0.1810     2.1710     3.1880 ha         1 U01       0.127000
     27 HB6          1.0510     2.1170     1.0500 ha         1 U01       0.122000
     28 HG1          2.3740    -1.0780    -0.3840 hc         1 U01       0.077700
     29 HG2          2.4190     1.9220    -0.7120 hc         1 U01       0.052700
     30 HG31         4.6960     1.7300     0.2570 hc         1 U01       0.035200
     31 HG32         3.4920     1.1470     1.4120 hc         1 U01       0.035200
     32 HG33         4.4720    -0.0150     0.4950 hc         1 U01       0.035200
     33 HG41         4.0570    -0.2250    -2.1510 hc         1 U01       0.035200
     34 HG42         2.8800     0.8800    -2.8950 hc         1 U01       0.035200
     35 HG43         4.3730     1.5220    -2.2000 hc         1 U01       0.035200
     36 HD1         -1.7510    -2.0020    -5.3860 ha         1 U01       0.143000
     37 HD2         -3.3450    -0.2650    -6.2070 ha         1 U01       0.125000
     38 HD3         -3.4270     1.9600    -5.0890 ha         1 U01       0.124000
     39 HD4         -1.9550     2.4610    -3.1860 ha         1 U01       0.110000
     40 HO6         -0.8020     2.4250    -1.8860 ho         1 U01       0.477000
@<TRIPOS>BOND
     1     1     2 1   
     2     1     5 2   
     3     1    12 1   
     4     2    20 2   
     5     2    21 1   
     6     3     4 ar  
     7     3    16 ar  
     8     3    21 1   
     9     4     5 1   
    10     4    19 ar  
    11     5    22 1   
    12     6     7 ar  
    13     6    11 ar  
    14     6    12 1   
    15     7     8 ar  
    16     7    24 1   
    17     8     9 ar  
    18     8    25 1   
    19     9    10 ar  
    20     9    23 1   
    21    10    11 ar  
    22    10    26 1   
    23    11    27 1   
    24    12    13 1   
    25    12    28 1   
    26    13    14 1   
    27    13    15 1   
    28    13    29 1   
    29    14    30 1   
    30    14    31 1   
    31    14    32 1   
    32    15    33 1   
    33    15    34 1   
    34    15    35 1   
    35    16    17 ar  
    36    16    36 1   
    37    17    18 ar  
    38    17    37 1   
    39    18    19 ar  
    40    18    38 1   
    41    19    39 1   
    42    22    40 1   
@<TRIPOS>SUBSTRUCTURE
     1 U01         1 TEMP              0 ****  ****    0 ROOT
