@<TRIPOS>MOLECULE
U02
   79    82     1     0     0
SMALL
No Charge or Current Charge


@<TRIPOS>ATOM
      1 CZ8          2.3700    -1.5020   -10.6060 c3         1 U02      -0.109100
      2 CZ7          2.9530     0.9300   -10.1930 c3         1 U02      -0.109100
      3 CZ6          3.8230    -0.9240    -8.6110 c3         1 U02      -0.109100
      4 CZ5          2.6670    -0.4400    -9.5240 c3         1 U02       0.226000
      5 OZ5          1.4420    -0.3600    -8.7570 os         1 U02      -0.484100
      6 CZ4          1.2960     0.4820    -7.6890 c          1 U02       0.652100
      7 OZ4          2.1220     1.2570    -7.2370 o          1 U02      -0.544000
      8 NZ3          0.0380     0.3180    -7.1890 ns         1 U02      -0.513900
      9 CZ3         -0.4950     1.0460    -6.0410 c3         1 U02       0.127000
     10 CZ2         -1.8480     0.4680    -5.5930 c3         1 U02      -0.183400
     11 CZ1         -2.3880     1.2370    -4.3850 c          1 U02       0.611100
     12 OZ1         -2.8470     2.3660    -4.5060 o          1 U02      -0.580100
     13 NZ1         -2.3390     0.5310    -3.1890 ns         1 U02      -0.145000
     14 CB5         -2.7240     0.8640    -1.8610 ca         1 U02      -0.021000
     15 CB4         -3.2070     2.1360    -1.4840 ca         1 U02      -0.132000
     16 CB3         -3.5630     2.3890    -0.1490 ca         1 U02      -0.089000
     17 CB2         -3.4400     1.3800     0.8190 ca         1 U02      -0.126000
     18 CB1         -2.9580     0.1060     0.4630 ca         1 U02      -0.030300
     19 CB6         -2.6030    -0.1370    -0.8800 ca         1 U02      -0.156000
     20 CG1         -2.8120    -1.0010     1.5120 c3         1 U02       0.068800
     21 CG2         -4.1770    -1.5100     1.9870 cx         1 U02      -0.044300
     22 CG3         -4.7390    -2.7780     1.4730 cu         1 U02      -0.244700
     23 CG4         -4.3010    -2.8040     2.6920 cu         1 U02      -0.244700
     24 CA          -1.8570    -0.5960     2.6440 cc         1 U02      -0.292400
     25 CA2         -0.4270    -0.8490     2.3550 c          1 U02       0.678300
     26 OA2         -0.0220    -1.3350     1.3070 o          1 U02      -0.493000
     27 OA3          0.4680    -0.5080     3.3230 os         1 U02      -0.334200
     28 CA4          0.1650     0.0590     4.5250 cc         1 U02       0.197900
     29 CA5         -1.1640     0.3150     4.7750 cd         1 U02      -0.400000
     30 CA6         -2.1930    -0.0040     3.8420 cd         1 U02       0.237100
     31 OA6         -3.4530     0.3080     4.1870 oh         1 U02      -0.504100
     32 CD           1.3340     0.3600     5.4340 c3         1 U02      -0.020500
     33 CD1          2.3130     1.3910     4.8060 c3         1 U02      -0.071400
     34 CD2          1.6490     2.7310     4.4220 c3         1 U02      -0.093100
     35 CE           2.0500    -0.9480     5.8650 c3         1 U02      -0.026100
     36 CE1          3.1160    -0.7330     6.9350 ca         1 U02      -0.084300
     37 CE2          2.7400    -0.4500     8.2630 ca         1 U02      -0.106000
     38 CE3          3.7200    -0.2470     9.2510 ca         1 U02      -0.108500
     39 CE4          5.0820    -0.3270     8.9160 ca         1 U02      -0.108000
     40 CE5          5.4630    -0.6100     7.5940 ca         1 U02      -0.108500
     41 CE6          4.4840    -0.8140     6.6070 ca         1 U02      -0.106000
     42 HZ81         1.5250    -1.1940   -11.2330 hc         1 U02       0.049367
     43 HZ82         3.2400    -1.6490   -11.2570 hc         1 U02       0.049367
     44 HZ83         2.1220    -2.4670   -10.1470 hc         1 U02       0.049367
     45 HZ71         2.0560     1.3150   -10.6900 hc         1 U02       0.049367
     46 HZ72         3.2960     1.6760    -9.4680 hc         1 U02       0.049367
     47 HZ73         3.7410     0.8270   -10.9480 hc         1 U02       0.049367
     48 HZ61         3.5190    -1.8020    -8.0300 hc         1 U02       0.049367
     49 HZ62         4.6940    -1.2030    -9.2160 hc         1 U02       0.049367
     50 HZ63         4.1500    -0.1440    -7.9150 hc         1 U02       0.049367
     51 HNZ3        -0.5440    -0.3590    -7.6650 hn         1 U02       0.318500
     52 HZ31        -0.6120     2.1040    -6.3150 h1         1 U02       0.071200
     53 HZ32         0.2270     0.9850    -5.2140 h1         1 U02       0.071200
     54 HZ21        -1.7110    -0.5910    -5.3400 hc         1 U02       0.063700
     55 HZ22        -2.5600     0.5670    -6.4210 hc         1 U02       0.063700
     56 HNZ1        -1.9500    -0.3990    -3.2770 hn         1 U02       0.149000
     57 HB4         -3.3100     2.9420    -2.2040 ha         1 U02       0.145000
     58 HB3         -3.9350     3.3710     0.1370 ha         1 U02       0.111000
     59 HB2         -3.7210     1.5930     1.8470 ha         1 U02       0.113000
     60 HB6         -2.2270    -1.1180    -1.1650 ha         1 U02       0.108000
     61 HG1         -2.3740    -1.8710     1.0070 hc         1 U02       0.069700
     62 HG2         -4.8710    -0.7120     2.2410 hc         1 U02       0.078700
     63 HG3         -5.1950    -3.2690     0.6190 ha         1 U02       0.233000
     64 HG4         -4.1170    -3.3310     3.6220 ha         1 U02       0.233000
     65 HA5         -1.4200     0.7800     5.7220 ha         1 U02       0.203000
     66 HO6         -3.4100     0.7020     5.0810 ho         1 U02       0.473000
     67 HD           0.9340     0.8180     6.3470 hc         1 U02       0.063700
     68 HD11         2.7810     0.9560     3.9140 hc         1 U02       0.057700
     69 HD12         3.1240     1.6020     5.5130 hc         1 U02       0.057700
     70 HD21         2.4000     3.4300     4.0350 hc         1 U02       0.036033
     71 HD22         0.8890     2.5870     3.6460 hc         1 U02       0.036033
     72 HD23         1.1720     3.1910     5.2960 hc         1 U02       0.036033
     73 HE1          1.2980    -1.6510     6.2430 hc         1 U02       0.061700
     74 HE2A         2.4880    -1.4270     4.9800 hc         1 U02       0.061700
     75 HE2          1.6870    -0.3870     8.5310 ha         1 U02       0.111000
     76 HE3          3.4230    -0.0290    10.2740 ha         1 U02       0.113000
     77 HE4          5.8400    -0.1700     9.6800 ha         1 U02       0.114000
     78 HE5          6.5180    -0.6720     7.3340 ha         1 U02       0.113000
     79 HE6          4.7900    -1.0300     5.5850 ha         1 U02       0.111000
@<TRIPOS>BOND
     1     1     4 1   
     2     1    42 1   
     3     1    43 1   
     4     1    44 1   
     5     2     4 1   
     6     2    45 1   
     7     2    46 1   
     8     2    47 1   
     9     3     4 1   
    10     3    48 1   
    11     3    49 1   
    12     3    50 1   
    13     4     5 1   
    14     5     6 1   
    15     6     7 2   
    16     6     8 1   
    17     8     9 1   
    18     8    51 1   
    19     9    10 1   
    20     9    52 1   
    21     9    53 1   
    22    10    11 1   
    23    10    54 1   
    24    10    55 1   
    25    11    12 2   
    26    11    13 1   
    27    13    14 1   
    28    13    56 1   
    29    14    15 ar  
    30    14    19 ar  
    31    15    16 ar  
    32    15    57 1   
    33    16    17 ar  
    34    16    58 1   
    35    17    18 ar  
    36    17    59 1   
    37    18    19 ar  
    38    18    20 1   
    39    19    60 1   
    40    20    21 1   
    41    20    24 1   
    42    20    61 1   
    43    21    22 1   
    44    21    23 1   
    45    21    62 1   
    46    22    23 2   
    47    22    63 1   
    48    23    64 1   
    49    24    25 1   
    50    24    30 2   
    51    25    26 2   
    52    25    27 1   
    53    27    28 1   
    54    28    29 2   
    55    28    32 1   
    56    29    30 1   
    57    29    65 1   
    58    30    31 1   
    59    31    66 1   
    60    32    33 1   
    61    32    35 1   
    62    32    67 1   
    63    33    34 1   
    64    33    68 1   
    65    33    69 1   
    66    34    70 1   
    67    34    71 1   
    68    34    72 1   
    69    35    36 1   
    70    35    73 1   
    71    35    74 1   
    72    36    37 ar  
    73    36    41 ar  
    74    37    38 ar  
    75    37    75 1   
    76    38    39 ar  
    77    38    76 1   
    78    39    40 ar  
    79    39    77 1   
    80    40    41 ar  
    81    40    78 1   
    82    41    79 1   
@<TRIPOS>SUBSTRUCTURE
     1 U02         1 TEMP              0 ****  ****    0 ROOT
