@<TRIPOS>MOLECULE
U02
   79    82     1     0     0
SMALL
abcg2


@<TRIPOS>ATOM
      1 CZ8          0.7790    -1.5940   -11.8120 c3         1 U02      -0.109100
      2 CZ7          1.7090     0.7160   -11.6590 c3         1 U02      -0.109100
      3 CZ6          2.8190    -1.1900   -10.4350 c3         1 U02      -0.109100
      4 CZ5          1.5000    -0.5960   -10.9130 c3         1 U02       0.226000
      5 OZ5          0.5700    -0.4250    -9.8120 os         1 U02      -0.484100
      6 CZ4          0.8150     0.3710    -8.7700 c          1 U02       0.652100
      7 OZ4          1.8220     1.0280    -8.6000 o          1 U02      -0.544000
      8 NZ3         -0.2240     0.3280    -7.9090 ns         1 U02      -0.513900
      9 CZ3         -0.3140     1.1640    -6.7350 c3         1 U02       0.127000
     10 CZ2         -1.0160     0.4050    -5.6180 c3         1 U02      -0.183400
     11 CZ1         -1.2220     1.2520    -4.3810 c          1 U02       0.611100
     12 OZ1         -1.3950     2.4560    -4.4370 o          1 U02      -0.580100
     13 NZ1         -1.2240     0.5350    -3.2290 ns         1 U02      -0.145000
     14 CB5         -1.4760     0.9480    -1.9170 ca         1 U02      -0.021000
     15 CB4         -1.7580     2.2610    -1.5380 ca         1 U02      -0.132000
     16 CB3         -1.9970     2.5370    -0.1980 ca         1 U02      -0.089000
     17 CB2         -1.9600     1.5440     0.7680 ca         1 U02      -0.126000
     18 CB1         -1.6720     0.2330     0.4000 ca         1 U02      -0.030300
     19 CB6         -1.4340    -0.0460    -0.9380 ca         1 U02      -0.156000
     20 CG1         -1.6810    -0.9070     1.3950 c3         1 U02       0.068800
     21 CG2         -3.0700    -1.5500     1.4340 cx         1 U02      -0.044300
     22 CG3         -3.2910    -2.8780     0.7830 cu         1 U02      -0.244700
     23 CG4         -3.2750    -2.8800     2.0740 cu         1 U02      -0.244700
     24 CA          -1.1100    -0.5190     2.7370 cc         1 U02      -0.292400
     25 CA2          0.3210    -0.5170     2.8180 c          1 U02       0.678300
     26 OA2          1.0950    -0.7660     1.9190 o          1 U02      -0.493000
     27 OA3          0.8940    -0.2000     4.0250 os         1 U02      -0.334200
     28 CA4          0.1890     0.1120     5.1180 cc         1 U02       0.197900
     29 CA5         -1.1520     0.1520     5.0770 cd         1 U02      -0.400000
     30 CA6         -1.8210    -0.1510     3.8490 cd         1 U02       0.237100
     31 OA6         -3.1430    -0.0580     3.7960 oh         1 U02      -0.504100
     32 CD           1.0280     0.3970     6.3210 c3         1 U02      -0.020500
     33 CD1          1.8940     1.6480     6.1290 c3         1 U02      -0.071400
     34 CD2          1.0910     2.9030     5.8200 c3         1 U02      -0.093100
     35 CE           1.8720    -0.8400     6.6930 c3         1 U02      -0.026100
     36 CE1          2.5500    -0.6880     8.0270 ca         1 U02      -0.084300
     37 CE2          1.8050    -0.7320     9.2050 ca         1 U02      -0.106000
     38 CE3          2.4160    -0.5750    10.4400 ca         1 U02      -0.108500
     39 CE4          3.7890    -0.3720    10.5190 ca         1 U02      -0.108000
     40 CE5          4.5410    -0.3320     9.3540 ca         1 U02      -0.108500
     41 CE6          3.9240    -0.4890     8.1190 ca         1 U02      -0.106000
     42 HZ81        -0.1860    -1.2060   -12.1390 hc         1 U02       0.049367
     43 HZ82         1.3770    -1.7940   -12.7010 hc         1 U02       0.049367
     44 HZ83         0.6150    -2.5430   -11.2990 hc         1 U02       0.049367
     45 HZ71         0.7560     1.1460   -11.9700 hc         1 U02       0.049367
     46 HZ72         2.2470     1.4510   -11.0630 hc         1 U02       0.049367
     47 HZ73         2.2930     0.5260   -12.5600 hc         1 U02       0.049367
     48 HZ61         2.6500    -2.0820    -9.8290 hc         1 U02       0.049367
     49 HZ62         3.4100    -1.4910   -11.3010 hc         1 U02       0.049367
     50 HZ63         3.4100    -0.4820    -9.8590 hc         1 U02       0.049367
     51 HNZ3        -1.0560    -0.1640    -8.1970 hn         1 U02       0.318500
     52 HZ31        -0.8490     2.0900    -6.9570 h1         1 U02       0.071200
     53 HZ32         0.6920     1.4370    -6.4230 h1         1 U02       0.071200
     54 HZ21        -0.4590    -0.5040    -5.3820 hc         1 U02       0.063700
     55 HZ22        -2.0070     0.0810    -5.9560 hc         1 U02       0.063700
     56 HNZ1        -1.0500    -0.4540    -3.3300 hn         1 U02       0.149000
     57 HB4         -1.7900     3.0580    -2.2610 ha         1 U02       0.145000
     58 HB3         -2.2160     3.5570     0.0920 ha         1 U02       0.111000
     59 HB2         -2.1500     1.7970     1.8030 ha         1 U02       0.113000
     60 HB6         -1.2060    -1.0670    -1.2290 ha         1 U02       0.108000
     61 HG1         -1.0120    -1.6770     1.0000 hc         1 U02       0.069700
     62 HG2         -3.8880    -0.8300     1.4400 hc         1 U02       0.078700
     63 HG3         -3.3850    -3.4050    -0.1510 ha         1 U02       0.233000
     64 HG4         -3.3430    -3.4120     3.0080 ha         1 U02       0.233000
     65 HA5         -1.7090     0.4160     5.9660 ha         1 U02       0.203000
     66 HO6         -3.5090     0.2120     4.6470 ho         1 U02       0.473000
     67 HD           0.3260     0.5920     7.1380 hc         1 U02       0.063700
     68 HD11         2.6330     1.4680     5.3430 hc         1 U02       0.057700
     69 HD12         2.4600     1.8000     7.0500 hc         1 U02       0.057700
     70 HD21         1.7400     3.7790     5.7950 hc         1 U02       0.036033
     71 HD22         0.5880     2.8450     4.8540 hc         1 U02       0.036033
     72 HD23         0.3270     3.0790     6.5790 hc         1 U02       0.036033
     73 HE1          1.2220    -1.7190     6.7140 hc         1 U02       0.061700
     74 HE2A         2.6200    -1.0170     5.9170 hc         1 U02       0.061700
     75 HE2          0.7340    -0.8960     9.1560 ha         1 U02       0.111000
     76 HE3          1.8200    -0.6160    11.3430 ha         1 U02       0.113000
     77 HE4          4.2670    -0.2480    11.4820 ha         1 U02       0.114000
     78 HE5          5.6120    -0.1810     9.4030 ha         1 U02       0.113000
     79 HE6          4.5220    -0.4590     7.2150 ha         1 U02       0.111000
@<TRIPOS>BOND
     1     1     4 1   
     2     1    42 1   
     3     1    43 1   
     4     1    44 1   
     5     2     4 1   
     6     2    45 1   
     7     2    46 1   
     8     2    47 1   
     9     3     4 1   
    10     3    48 1   
    11     3    49 1   
    12     3    50 1   
    13     4     5 1   
    14     5     6 1   
    15     6     7 2   
    16     6     8 1   
    17     8     9 1   
    18     8    51 1   
    19     9    10 1   
    20     9    52 1   
    21     9    53 1   
    22    10    11 1   
    23    10    54 1   
    24    10    55 1   
    25    11    12 2   
    26    11    13 1   
    27    13    14 1   
    28    13    56 1   
    29    14    15 ar  
    30    14    19 ar  
    31    15    16 ar  
    32    15    57 1   
    33    16    17 ar  
    34    16    58 1   
    35    17    18 ar  
    36    17    59 1   
    37    18    19 ar  
    38    18    20 1   
    39    19    60 1   
    40    20    21 1   
    41    20    24 1   
    42    20    61 1   
    43    21    22 1   
    44    21    23 1   
    45    21    62 1   
    46    22    23 2   
    47    22    63 1   
    48    23    64 1   
    49    24    25 1   
    50    24    30 2   
    51    25    26 2   
    52    25    27 1   
    53    27    28 1   
    54    28    29 2   
    55    28    32 1   
    56    29    30 1   
    57    29    65 1   
    58    30    31 1   
    59    31    66 1   
    60    32    33 1   
    61    32    35 1   
    62    32    67 1   
    63    33    34 1   
    64    33    68 1   
    65    33    69 1   
    66    34    70 1   
    67    34    71 1   
    68    34    72 1   
    69    35    36 1   
    70    35    73 1   
    71    35    74 1   
    72    36    37 ar  
    73    36    41 ar  
    74    37    38 ar  
    75    37    75 1   
    76    38    39 ar  
    77    38    76 1   
    78    39    40 ar  
    79    39    77 1   
    80    40    41 ar  
    81    40    78 1   
    82    41    79 1   
@<TRIPOS>SUBSTRUCTURE
     1 U02         1 TEMP              0 ****  ****    0 ROOT
