@<TRIPOS>MOLECULE
U03
   41    43     1     0     0
SMALL
abcg2


@<TRIPOS>ATOM
      1 CA          -0.4390     0.6530     0.5970 cc         1 U03      -0.280400
      2 CA2          0.7530     1.3590     0.1890 c          1 U03       0.686300
      3 CA4          0.4810     0.5740    -2.0440 ca         1 U03       0.229100
      4 CA5         -0.6590    -0.1530    -1.7020 ca         1 U03      -0.243800
      5 CA6         -1.0970    -0.1100    -0.3240 cd         1 U03       0.247900
      6 CB1          0.0260    -0.1470     2.9180 ca         1 U03      -0.069300
      7 CB2          0.8060     0.3360     3.9640 ca         1 U03      -0.099500
      8 CB3          1.5300    -0.5270     4.7770 ca         1 U03      -0.114000
      9 CB4          1.4880    -1.8960     4.5510 ca         1 U03      -0.112000
     10 CB5          0.7170    -2.3900     3.5060 ca         1 U03      -0.114000
     11 CB6         -0.0060    -1.5240     2.6980 ca         1 U03      -0.099500
     12 CG1         -0.7890     0.8040     2.0640 c3         1 U03       0.055800
     13 CG2         -2.2840     0.7450     2.4240 c3         1 U03      -0.060400
     14 CG3         -2.5530     1.3240     3.8070 c3         1 U03      -0.092100
     15 CD1          0.9800     0.5990    -3.3320 ca         1 U03      -0.182000
     16 CD2          0.3260    -0.1160    -4.3300 ca         1 U03       0.198100
     17 CD3         -0.8250    -0.8520    -4.0170 ca         1 U03      -0.224000
     18 CD4         -1.2970    -0.8620    -2.7230 ca         1 U03      -0.025000
     19 CE3          0.2310    -0.7360    -6.6190 c3         1 U03       0.146900
     20 OA2          1.4600     2.0260     0.9090 o          1 U03      -0.485000
     21 OA3          1.1480     1.2820    -1.1140 os         1 U03      -0.334200
     22 OA6         -2.1490    -0.8270     0.0510 oh         1 U03      -0.516100
     23 OE3          0.8610    -0.0460    -5.5520 os         1 U03      -0.330100
     24 HB2          0.8480     1.4030     4.1470 ha         1 U03       0.113000
     25 HB3          2.1280    -0.1280     5.5870 ha         1 U03       0.109000
     26 HB4          2.0530    -2.5710     5.1800 ha         1 U03       0.109000
     27 HB5          0.6790    -3.4560     3.3170 ha         1 U03       0.109000
     28 HB6         -0.5990    -1.9320     1.8890 ha         1 U03       0.113000
     29 HG1         -0.4670     1.8140     2.3340 hc         1 U03       0.068700
     30 HG21        -2.6530    -0.2790     2.3880 hc         1 U03       0.045200
     31 HG22        -2.8510     1.3140     1.6840 hc         1 U03       0.045200
     32 HG31        -3.6180     1.2890     4.0360 hc         1 U03       0.033367
     33 HG32        -2.0310     0.7710     4.5890 hc         1 U03       0.033367
     34 HG33        -2.2360     2.3670     3.8720 hc         1 U03       0.033367
     35 HD1          1.8710     1.1700    -3.5610 ha         1 U03       0.156000
     36 HD3         -1.3560    -1.4180    -4.7680 ha         1 U03       0.126000
     37 HD4         -2.1930    -1.4420    -2.5350 ha         1 U03       0.107000
     38 HE31         0.8250    -0.5330    -7.5060 h1         1 U03       0.047367
     39 HE32         0.2100    -1.8150    -6.4480 h1         1 U03       0.047367
     40 HE33        -0.7880    -0.3800    -6.7850 h1         1 U03       0.047367
     41 HO6         -2.5140    -1.3590    -0.6640 ho         1 U03       0.475000
@<TRIPOS>BOND
     1     1     2 1   
     2     1     5 2   
     3     1    12 1   
     4     2    20 2   
     5     2    21 1   
     6     3     4 ar  
     7     3    15 ar  
     8     3    21 1   
     9     4     5 1   
    10     4    18 ar  
    11     5    22 1   
    12     6     7 ar  
    13     6    11 ar  
    14     6    12 1   
    15     7     8 ar  
    16     7    24 1   
    17     8     9 ar  
    18     8    25 1   
    19     9    10 ar  
    20     9    26 1   
    21    10    11 ar  
    22    10    27 1   
    23    11    28 1   
    24    12    13 1   
    25    12    29 1   
    26    13    14 1   
    27    13    30 1   
    28    13    31 1   
    29    14    32 1   
    30    14    33 1   
    31    14    34 1   
    32    15    16 ar  
    33    15    35 1   
    34    16    17 ar  
    35    16    23 1   
    36    17    18 ar  
    37    17    36 1   
    38    18    37 1   
    39    19    23 1   
    40    19    38 1   
    41    19    39 1   
    42    19    40 1   
    43    22    41 1   
@<TRIPOS>SUBSTRUCTURE
     1 U03         1 TEMP              0 ****  ****    0 ROOT
