@<TRIPOS>MOLECULE
U03
   41    43     1     0     0
SMALL
No Charge or Current Charge


@<TRIPOS>ATOM
      1 CA          -0.4640     0.7120     0.6350 cc         1 U03      -0.280400
      2 CA2          0.6960     1.5460     0.1970 c          1 U03       0.686300
      3 CA4          0.4550     0.6880    -2.0530 ca         1 U03       0.229100
      4 CA5         -0.6260    -0.1270    -1.6980 ca         1 U03      -0.243800
      5 CA6         -1.0730    -0.1020    -0.3020 cd         1 U03       0.247900
      6 CB1         -0.0040    -0.1580     2.9650 ca         1 U03      -0.069300
      7 CB2          1.0540     0.3040     3.7770 ca         1 U03      -0.099500
      8 CB3          1.8080    -0.5970     4.5490 ca         1 U03      -0.114000
      9 CB4          1.5150    -1.9690     4.5150 ca         1 U03      -0.112000
     10 CB5          0.4670    -2.4400     3.7070 ca         1 U03      -0.114000
     11 CB6         -0.2870    -1.5400     2.9350 ca         1 U03      -0.099500
     12 CG1         -0.8140     0.8360     2.1250 c3         1 U03       0.055800
     13 CG2         -2.3330     0.7980     2.4640 c3         1 U03      -0.060400
     14 CG3         -2.6590     1.2810     3.8940 c3         1 U03      -0.092100
     15 CD1          0.9390     0.7190    -3.3670 ca         1 U03      -0.182000
     16 CD2          0.3450    -0.0710    -4.3570 ca         1 U03       0.198100
     17 CD3         -0.7440    -0.8970    -4.0190 ca         1 U03      -0.224000
     18 CD4         -1.2290    -0.9270    -2.7000 ca         1 U03      -0.025000
     19 CE3          0.3220    -0.7740    -6.7220 c3         1 U03       0.146900
     20 OA2          1.3250     2.2750     0.9530 o          1 U03      -0.485000
     21 OA3          1.0630     1.4710    -1.1170 os         1 U03      -0.334200
     22 OA6         -2.0880    -0.9240     0.0240 oh         1 U03      -0.516100
     23 OE3          0.8620    -0.0020    -5.6350 os         1 U03      -0.330100
     24 HB2          1.2950     1.3640     3.8110 ha         1 U03       0.113000
     25 HB3          2.6210    -0.2300     5.1720 ha         1 U03       0.109000
     26 HB4          2.0990    -2.6660     5.1120 ha         1 U03       0.109000
     27 HB5          0.2400    -3.5040     3.6780 ha         1 U03       0.109000
     28 HB6         -1.0910    -1.9220     2.3130 ha         1 U03       0.113000
     29 HG1         -0.5290     1.8450     2.4460 hc         1 U03       0.068700
     30 HG21        -2.7330    -0.2150     2.3540 hc         1 U03       0.045200
     31 HG22        -2.8730     1.4340     1.7510 hc         1 U03       0.045200
     32 HG31        -3.7410     1.2450     4.0700 hc         1 U03       0.033367
     33 HG32        -2.1710     0.6450     4.6420 hc         1 U03       0.033367
     34 HG33        -2.3230     2.3140     4.0440 hc         1 U03       0.033367
     35 HD1          1.7790     1.3590    -3.6180 ha         1 U03       0.156000
     36 HD3         -1.2290    -1.5220    -4.7630 ha         1 U03       0.126000
     37 HD4         -2.0730    -1.5770    -2.4820 ha         1 U03       0.107000
     38 HE31         0.8780    -0.5690    -7.6460 h1         1 U03       0.047367
     39 HE32         0.3960    -1.8490    -6.5130 h1         1 U03       0.047367
     40 HE33        -0.7310    -0.5200    -6.8970 h1         1 U03       0.047367
     41 HO6         -2.3300    -1.4040    -0.7900 ho         1 U03       0.475000
@<TRIPOS>BOND
     1     1     2 1   
     2     1     5 2   
     3     1    12 1   
     4     2    20 2   
     5     2    21 1   
     6     3     4 ar  
     7     3    15 ar  
     8     3    21 1   
     9     4     5 1   
    10     4    18 ar  
    11     5    22 1   
    12     6     7 ar  
    13     6    11 ar  
    14     6    12 1   
    15     7     8 ar  
    16     7    24 1   
    17     8     9 ar  
    18     8    25 1   
    19     9    10 ar  
    20     9    26 1   
    21    10    11 ar  
    22    10    27 1   
    23    11    28 1   
    24    12    13 1   
    25    12    29 1   
    26    13    14 1   
    27    13    30 1   
    28    13    31 1   
    29    14    32 1   
    30    14    33 1   
    31    14    34 1   
    32    15    16 ar  
    33    15    35 1   
    34    16    17 ar  
    35    16    23 1   
    36    17    18 ar  
    37    17    36 1   
    38    18    37 1   
    39    19    23 1   
    40    19    38 1   
    41    19    39 1   
    42    19    40 1   
    43    22    41 1   
@<TRIPOS>SUBSTRUCTURE
     1 U03         1 TEMP              0 ****  ****    0 ROOT
