@<TRIPOS>MOLECULE
U04
   61    63     1     0     0
SMALL
bcc


@<TRIPOS>ATOM
      1 CA           0.5150     0.6250     3.9460 cc         1 U04      -0.276400
      2 CA2         -0.5350     1.5140     3.4990 c          1 U04       0.763800
      3 CA3         -1.9350     0.7760     5.2790 ca         1 U04       0.191100
      4 CA4         -3.1710     0.9050     5.8980 ca         1 U04      -0.147000
      5 CA5         -3.4510     0.1280     7.0040 ca         1 U04      -0.075000
      6 CA6         -2.5060    -0.7730     7.4910 ca         1 U04      -0.152000
      7 CA7         -1.2820    -0.8930     6.8670 ca         1 U04      -0.084000
      8 CA8         -0.9720    -0.1140     5.7460 ca         1 U04      -0.200800
      9 CA9          0.2860    -0.1760     5.0240 cd         1 U04       0.242900
     10 CB           1.7720     0.6440     3.0960 c3         1 U04       0.053800
     11 CB1          1.6320    -0.3320     1.9430 ca         1 U04      -0.045300
     12 CB2          1.7190    -1.7110     2.1350 ca         1 U04      -0.143000
     13 CB3          1.5750    -2.5670     1.0560 ca         1 U04      -0.112000
     14 CB4          1.3420    -2.0900    -0.2280 ca         1 U04      -0.146000
     15 CB5          1.2510    -0.7150    -0.4280 ca         1 U04       0.065600
     16 CB6          1.3980     0.1460     0.6630 ca         1 U04      -0.168000
     17 CB7          3.1090     0.4990     3.8380 c3         1 U04      -0.060400
     18 CB8          4.2800     0.8830     2.9430 c3         1 U04      -0.092100
     19 CG1          0.6510    -0.6710    -2.8400 c          1 U04       0.662100
     20 CG2          0.5280     0.3390    -3.9690 c3         1 U04       0.038000
     21 CG3         -0.2800     0.3980    -6.2520 c          1 U04       0.770100
     22 CG4         -1.1250     0.0560    -8.5220 c3         1 U04       0.202800
     23 CG5         -1.6430    -1.2070    -9.1980 c3         1 U04      -0.109433
     24 CG6         -2.2320     1.1020    -8.4670 c3         1 U04      -0.109433
     25 CG7          0.1070     0.5740    -9.2550 c3         1 U04      -0.109433
     26 NB5          1.0330    -0.1090    -1.6720 ns         1 U04      -0.467100
     27 NG2         -0.0450    -0.2920    -5.1200 ns         1 U04      -0.568900
     28 OA2         -0.4780     2.2530     2.5440 o          1 U04      -0.568500
     29 OA3         -1.7010     1.5440     4.1990 os         1 U04      -0.333200
     30 OA9          1.2220    -1.0310     5.4130 oh         1 U04      -0.476100
     31 OG1          0.4330    -1.8570    -3.0060 o          1 U04      -0.586100
     32 OG3         -0.0640     1.5880    -6.3700 o          1 U04      -0.606000
     33 OG4         -0.7770    -0.4070    -7.1900 os         1 U04      -0.450900
     34 HA4         -3.8970     1.6060     5.5080 ha         1 U04       0.161000
     35 HA5         -4.4130     0.2200     7.4910 ha         1 U04       0.143000
     36 HA6         -2.7280    -1.3800     8.3570 ha         1 U04       0.142000
     37 HA7         -0.5780    -1.6080     7.2770 ha         1 U04       0.127000
     38 HB           1.8010     1.6420     2.6550 hc         1 U04       0.069700
     39 HB2          1.9030    -2.1200     3.1190 ha         1 U04       0.137000
     40 HB3          1.6470    -3.6360     1.2090 ha         1 U04       0.130000
     41 HB4          1.2420    -2.7860    -1.0440 ha         1 U04       0.162000
     42 HB6          1.3220     1.2160     0.5050 ha         1 U04       0.138000
     43 HB71         3.2600    -0.5140     4.2070 hc         1 U04       0.045700
     44 HB72         3.0910     1.1520     4.7150 hc         1 U04       0.045700
     45 HB81         5.2200     0.8340     3.4950 hc         1 U04       0.034367
     46 HB82         4.3670     0.2140     2.0870 hc         1 U04       0.034367
     47 HB83         4.1760     1.9000     2.5600 hc         1 U04       0.034367
     48 HG21        -0.0800     1.1850    -3.6340 h1         1 U04       0.067200
     49 HG22         1.5280     0.7360    -4.1780 h1         1 U04       0.067200
     50 HG51        -1.9340    -0.9860   -10.2250 hc         1 U04       0.049700
     51 HG52        -0.8810    -1.9870    -9.2270 hc         1 U04       0.049700
     52 HG53        -2.5200    -1.6000    -8.6800 hc         1 U04       0.049700
     53 HG61        -3.0900     0.7340    -7.9020 hc         1 U04       0.049700
     54 HG62        -1.8980     2.0370    -8.0250 hc         1 U04       0.049700
     55 HG63        -2.5730     1.3160    -9.4800 hc         1 U04       0.049700
     56 HG71         0.9090    -0.1660    -9.2460 hc         1 U04       0.049700
     57 HG72        -0.1510     0.7660   -10.2980 hc         1 U04       0.049700
     58 HG73         0.4810     1.5010    -8.8290 hc         1 U04       0.049700
     59 HN5          1.1320     0.8950    -1.6750 hn         1 U04       0.322500
     60 HN2         -0.2000    -1.2880    -5.0870 hn         1 U04       0.353500
     61 HO9          0.9890    -1.5020     6.2200 ho         1 U04       0.439000
@<TRIPOS>BOND
     1     1     2 1   
     2     1     9 2   
     3     1    10 1   
     4     2    28 2   
     5     2    29 1   
     6     3     4 ar  
     7     3     8 ar  
     8     3    29 1   
     9     4     5 ar  
    10     4    34 1   
    11     5     6 ar  
    12     5    35 1   
    13     6     7 ar  
    14     6    36 1   
    15     7     8 ar  
    16     7    37 1   
    17     8     9 1   
    18     9    30 1   
    19    10    11 1   
    20    10    17 1   
    21    10    38 1   
    22    11    12 ar  
    23    11    16 ar  
    24    12    13 ar  
    25    12    39 1   
    26    13    14 ar  
    27    13    40 1   
    28    14    15 ar  
    29    14    41 1   
    30    15    16 ar  
    31    15    26 1   
    32    16    42 1   
    33    17    18 1   
    34    17    43 1   
    35    17    44 1   
    36    18    45 1   
    37    18    46 1   
    38    18    47 1   
    39    19    20 1   
    40    19    26 1   
    41    19    31 2   
    42    20    27 1   
    43    20    48 1   
    44    20    49 1   
    45    21    27 1   
    46    21    32 2   
    47    21    33 1   
    48    22    23 1   
    49    22    24 1   
    50    22    25 1   
    51    22    33 1   
    52    23    50 1   
    53    23    51 1   
    54    23    52 1   
    55    24    53 1   
    56    24    54 1   
    57    24    55 1   
    58    25    56 1   
    59    25    57 1   
    60    25    58 1   
    61    26    59 1   
    62    27    60 1   
    63    30    61 1   
@<TRIPOS>SUBSTRUCTURE
     1 U04         1 TEMP              0 ****  ****    0 ROOT
