@<TRIPOS>MOLECULE
U04
   61    63     1     0     0
SMALL
No Charge or Current Charge


@<TRIPOS>ATOM
      1 CA           0.8250     0.7570     3.9230 cc         1 U04      -0.276400
      2 CA2          0.2310     2.1260     3.8680 c          1 U04       0.688300
      3 CA3         -1.7040     1.3170     5.0840 ca         1 U04       0.191100
      4 CA4         -2.9500     1.6410     5.6440 ca         1 U04      -0.129000
      5 CA5         -3.7060     0.6540     6.2950 ca         1 U04      -0.057000
      6 CA6         -3.2090    -0.6560     6.3810 ca         1 U04      -0.134000
      7 CA7         -1.9610    -0.9800     5.8200 ca         1 U04      -0.066000
      8 CA8         -1.1940     0.0130     5.1610 ca         1 U04      -0.200800
      9 CA9          0.1150    -0.2450     4.5510 cd         1 U04       0.242900
     10 CB           2.1880     0.5780     3.2480 c3         1 U04       0.053800
     11 CB1          2.1000    -0.3920     2.0570 ca         1 U04      -0.045300
     12 CB2          2.5070    -1.7410     2.1330 ca         1 U04      -0.125000
     13 CB3          2.3980    -2.5810     1.0140 ca         1 U04      -0.094000
     14 CB4          1.8780    -2.0900    -0.1940 ca         1 U04      -0.128000
     15 CB5          1.4570    -0.7460    -0.2910 ca         1 U04      -0.027000
     16 CB6          1.5720     0.0860     0.8390 ca         1 U04      -0.150000
     17 CB7          3.3070     0.2700     4.2850 c3         1 U04      -0.060400
     18 CB8          4.7380     0.3130     3.7040 c3         1 U04      -0.092100
     19 CG1          0.6650    -0.6910    -2.7400 c          1 U04       0.595100
     20 CG2          0.0550     0.3390    -3.7200 c3         1 U04       0.038000
     21 CG3         -0.7330     0.4440    -6.1110 c          1 U04       0.654100
     22 CG4         -1.3450    -0.0060    -8.4590 c3         1 U04       0.226000
     23 CG5         -1.2500    -1.2800    -9.3280 c3         1 U04      -0.109433
     24 CG6         -2.8280     0.4190    -8.3070 c3         1 U04      -0.109433
     25 CG7         -0.4520     1.1100    -9.0590 c3         1 U04      -0.109433
     26 NB5          0.9150    -0.1730    -1.4750 ns         1 U04      -0.141000
     27 NG2         -0.2010    -0.2380    -5.0580 ns         1 U04      -0.501900
     28 OA2          0.7790     3.0810     3.3330 o          1 U04      -0.493000
     29 OA3         -0.9920     2.2990     4.4570 os         1 U04      -0.333200
     30 OA9          0.5990    -1.4990     4.6350 oh         1 U04      -0.515100
     31 OG1          0.8970    -1.8510    -3.0720 o          1 U04      -0.586100
     32 OG3         -1.0620     1.6180    -6.0730 o          1 U04      -0.557000
     33 OG4         -0.8200    -0.4120    -7.1730 os         1 U04      -0.474100
     34 HA4         -3.3260     2.6580     5.5720 ha         1 U04       0.143000
     35 HA5         -4.6720     0.9030     6.7300 ha         1 U04       0.125000
     36 HA6         -3.7930    -1.4230     6.8860 ha         1 U04       0.124000
     37 HA7         -1.6130    -2.0060     5.9100 ha         1 U04       0.109000
     38 HB           2.5080     1.5300     2.8110 hc         1 U04       0.069700
     39 HB2          2.9030    -2.1530     3.0570 ha         1 U04       0.119000
     40 HB3          2.7160    -3.6190     1.0840 ha         1 U04       0.112000
     41 HB4          1.8090    -2.7700    -1.0370 ha         1 U04       0.144000
     42 HB6          1.2470     1.1220     0.7730 ha         1 U04       0.120000
     43 HB71         3.1390    -0.7000     4.7630 hc         1 U04       0.045700
     44 HB72         3.2470     1.0150     5.0880 hc         1 U04       0.045700
     45 HB81         5.4740     0.1230     4.4940 hc         1 U04       0.034367
     46 HB82         4.8750    -0.4450     2.9240 hc         1 U04       0.034367
     47 HB83         4.9510     1.2970     3.2690 hc         1 U04       0.034367
     48 HG21        -0.8870     0.7070    -3.2940 h1         1 U04       0.067200
     49 HG22         0.7500     1.1830    -3.8120 h1         1 U04       0.067200
     50 HG51        -1.6250    -1.0900   -10.3410 hc         1 U04       0.049700
     51 HG52        -0.2100    -1.6200    -9.4100 hc         1 U04       0.049700
     52 HG53        -1.8420    -2.0940    -8.8930 hc         1 U04       0.049700
     53 HG61        -3.3900    -0.3260    -7.7310 hc         1 U04       0.049700
     54 HG62        -2.9270     1.3890    -7.8070 hc         1 U04       0.049700
     55 HG63        -3.3010     0.5130    -9.2910 hc         1 U04       0.049700
     56 HG71         0.6080     0.8360    -8.9960 hc         1 U04       0.049700
     57 HG72        -0.6980     1.2690   -10.1150 hc         1 U04       0.049700
     58 HG73        -0.5930     2.0680    -8.5460 hc         1 U04       0.049700
     59 HN5          0.6640     0.8020    -1.3740 hn         1 U04       0.156000
     60 HN2          0.0280    -1.2110    -5.2290 hn         1 U04       0.353500
     61 HO9         -0.0800    -2.0310     5.0910 ho         1 U04       0.478000
@<TRIPOS>BOND
     1     1     2 1   
     2     1     9 2   
     3     1    10 1   
     4     2    28 2   
     5     2    29 1   
     6     3     4 ar  
     7     3     8 ar  
     8     3    29 1   
     9     4     5 ar  
    10     4    34 1   
    11     5     6 ar  
    12     5    35 1   
    13     6     7 ar  
    14     6    36 1   
    15     7     8 ar  
    16     7    37 1   
    17     8     9 1   
    18     9    30 1   
    19    10    11 1   
    20    10    17 1   
    21    10    38 1   
    22    11    12 ar  
    23    11    16 ar  
    24    12    13 ar  
    25    12    39 1   
    26    13    14 ar  
    27    13    40 1   
    28    14    15 ar  
    29    14    41 1   
    30    15    16 ar  
    31    15    26 1   
    32    16    42 1   
    33    17    18 1   
    34    17    43 1   
    35    17    44 1   
    36    18    45 1   
    37    18    46 1   
    38    18    47 1   
    39    19    20 1   
    40    19    26 1   
    41    19    31 2   
    42    20    27 1   
    43    20    48 1   
    44    20    49 1   
    45    21    27 1   
    46    21    32 2   
    47    21    33 1   
    48    22    23 1   
    49    22    24 1   
    50    22    25 1   
    51    22    33 1   
    52    23    50 1   
    53    23    51 1   
    54    23    52 1   
    55    24    53 1   
    56    24    54 1   
    57    24    55 1   
    58    25    56 1   
    59    25    57 1   
    60    25    58 1   
    61    26    59 1   
    62    27    60 1   
    63    30    61 1   
@<TRIPOS>SUBSTRUCTURE
     1 U04         1 TEMP              0 ****  ****    0 ROOT
