@<TRIPOS>MOLECULE
U05
   36    38     1     0     0
SMALL
bcc


@<TRIPOS>ATOM
      1 N1          -2.0990    -0.0190     2.2210 nb         1 U05      -0.726000
      2 C2          -2.4620     0.9140     3.0900 ca         1 U05       0.458200
      3 C3          -1.5900     1.8650     3.5930 ca         1 U05      -0.280300
      4 C4          -0.2590     1.7740     3.2250 ca         1 U05      -0.020000
      5 C4A          0.1460     0.7910     2.3300 ca         1 U05      -0.289900
      6 C5           1.6060     0.5640     2.1650 c          1 U05       0.742100
      7 O13          2.3570     0.8040     3.0930 o          1 U05      -0.610500
      8 N6           2.0880     0.0750     0.9860 n          1 U05      -0.376000
      9 C12          3.5220    -0.1810     0.9080 c3         1 U05       0.084300
     10 C6A          1.3640     0.0960    -0.2140 ca         1 U05       0.103600
     11 C7           1.9480     0.6400    -1.3570 ca         1 U05      -0.164000
     12 C8           1.3050     0.6040    -2.5760 ca         1 U05      -0.055000
     13 C9           0.0460     0.0260    -2.6390 ca         1 U05      -0.182200
     14 N           -0.6540    -0.0200    -3.9110 no         1 U05       0.317200
     15 O1          -0.1120     0.4680    -4.8750 o          1 U05      -0.207500
     16 O2          -1.7440    -0.5420    -3.9420 o          1 U05      -0.207500
     17 C10         -0.5690    -0.4980    -1.5160 ca         1 U05      -0.082000
     18 C11          0.0920    -0.4800    -0.2960 ca         1 U05       0.112600
     19 N11         -0.5020    -1.0210     0.8610 na         1 U05      -0.650700
     20 C14         -1.3810    -2.1780     0.7090 c3         1 U05       0.214800
     21 C15         -0.6600    -3.3470     0.0620 c3         1 U05      -0.103100
     22 C1A         -0.8400    -0.0660     1.8190 ca         1 U05       0.680200
     23 H2          -3.5020     0.9070     3.3930 h4         1 U05       0.025100
     24 H3          -1.9350     2.6270     4.2770 ha         1 U05       0.152000
     25 H4           0.4710     2.4520     3.6470 ha         1 U05       0.158000
     26 H121         3.8500    -0.6940     1.8070 h1         1 U05       0.052033
     27 H122         3.7180    -0.8260     0.0560 h1         1 U05       0.052033
     28 H123         4.1010     0.7370     0.8020 h1         1 U05       0.052033
     29 H7           2.9270     1.0950    -1.2960 ha         1 U05       0.154000
     30 H8           1.7830     1.0220    -3.4490 ha         1 U05       0.173000
     31 H10         -1.5560    -0.9330    -1.5870 ha         1 U05       0.179000
     32 H141        -2.2970    -1.9320     0.1630 h1         1 U05       0.056200
     33 H142        -1.6960    -2.4650     1.7110 h1         1 U05       0.056200
     34 H151        -1.3240    -4.2110     0.0430 hc         1 U05       0.044700
     35 H152        -0.3580    -3.1480    -0.9660 hc         1 U05       0.044700
     36 H153         0.2310    -3.6160     0.6300 hc         1 U05       0.044700
@<TRIPOS>BOND
     1     1     2 ar  
     2     1    22 ar  
     3     2     3 ar  
     4     2    23 1   
     5     3     4 ar  
     6     3    24 1   
     7     4     5 ar  
     8     4    25 1   
     9     5     6 1   
    10     5    22 ar  
    11     6     7 2   
    12     6     8 1   
    13     8     9 1   
    14     8    10 1   
    15     9    26 1   
    16     9    27 1   
    17     9    28 1   
    18    10    11 ar  
    19    10    18 ar  
    20    11    12 ar  
    21    11    29 1   
    22    12    13 ar  
    23    12    30 1   
    24    13    14 1   
    25    13    17 ar  
    26    14    15 1   
    27    14    16 1   
    28    17    18 ar  
    29    17    31 1   
    30    18    19 1   
    31    19    20 1   
    32    19    22 1   
    33    20    21 1   
    34    20    32 1   
    35    20    33 1   
    36    21    34 1   
    37    21    35 1   
    38    21    36 1   
@<TRIPOS>SUBSTRUCTURE
     1 U05         1 TEMP              0 ****  ****    0 ROOT
