@<TRIPOS>MOLECULE
U05
   36    38     1     0     0
SMALL
No Charge or Current Charge


@<TRIPOS>ATOM
      1 N1          -2.3160     0.3370     1.8200 nb         1 U05      -0.726000
      2 C2          -2.5800     1.2030     2.8170 ca         1 U05       0.392900
      3 C3          -1.5760     1.7710     3.6060 ca         1 U05      -0.197000
      4 C4          -0.2430     1.4350     3.3460 ca         1 U05      -0.002000
      5 C4A          0.0420     0.5450     2.2880 ca         1 U05      -0.224600
      6 C5           1.4830     0.1600     2.0530 c          1 U05       0.599600
      7 O13          2.2450     0.1830     3.0130 o          1 U05      -0.535000
      8 N6           1.9820    -0.2360     0.7770 n          1 U05      -0.309000
      9 C12          3.4100    -0.6380     0.7040 c3         1 U05       0.084300
     10 C6A          1.2670    -0.1350    -0.4750 ca         1 U05       0.103600
     11 C7           1.8900     0.4800    -1.5840 ca         1 U05      -0.146000
     12 C8           1.1850     0.7090    -2.7780 ca         1 U05      -0.037000
     13 C9          -0.1840     0.3740    -2.8740 ca         1 U05      -0.182200
     14 N           -0.9450     0.6180    -4.1420 no         1 U05       0.697200
     15 O1          -0.3380     1.1070    -5.1040 o          1 U05      -0.397500
     16 O2          -2.1440     0.3110    -4.1720 o          1 U05      -0.397500
     17 C10         -0.8300    -0.1670    -1.7390 ca         1 U05      -0.064000
     18 C11         -0.1160    -0.3930    -0.5500 ca         1 U05       0.251000
     19 N11         -0.7800    -0.8760     0.5590 na         1 U05      -0.789100
     20 C14         -1.1230    -2.3060     0.6900 c3         1 U05       0.214800
     21 C15          0.0250    -3.1330     1.2920 c3         1 U05      -0.103100
     22 C1A         -1.0390     0.0070     1.5640 ca         1 U05       0.614900
     23 H2          -3.6280     1.4430     2.9920 h4         1 U05       0.025100
     24 H3          -1.8340     2.4600     4.4050 ha         1 U05       0.134000
     25 H4           0.5520     1.8660     3.9530 ha         1 U05       0.140000
     26 H121         3.6470    -1.3380     1.5160 h1         1 U05       0.052033
     27 H122         3.6180    -1.1420    -0.2480 h1         1 U05       0.052033
     28 H123         4.0510     0.2480     0.7920 h1         1 U05       0.052033
     29 H7           2.9320     0.7830    -1.5300 ha         1 U05       0.136000
     30 H8           1.7090     1.1610    -3.6200 ha         1 U05       0.155000
     31 H10         -1.8910    -0.4020    -1.7590 ha         1 U05       0.161000
     32 H141        -1.3760    -2.7100    -0.2990 h1         1 U05       0.056200
     33 H142        -2.0130    -2.4130     1.3270 h1         1 U05       0.056200
     34 H151        -0.2700    -4.1850     1.3780 hc         1 U05       0.044700
     35 H152         0.9170    -3.0770     0.6560 hc         1 U05       0.044700
     36 H153         0.2850    -2.7650     2.2910 hc         1 U05       0.044700
@<TRIPOS>BOND
     1     1     2 ar  
     2     1    22 ar  
     3     2     3 ar  
     4     2    23 1   
     5     3     4 ar  
     6     3    24 1   
     7     4     5 ar  
     8     4    25 1   
     9     5     6 1   
    10     5    22 ar  
    11     6     7 2   
    12     6     8 1   
    13     8     9 1   
    14     8    10 1   
    15     9    26 1   
    16     9    27 1   
    17     9    28 1   
    18    10    11 ar  
    19    10    18 ar  
    20    11    12 ar  
    21    11    29 1   
    22    12    13 ar  
    23    12    30 1   
    24    13    14 1   
    25    13    17 ar  
    26    14    15 1   
    27    14    16 1   
    28    17    18 ar  
    29    17    31 1   
    30    18    19 1   
    31    19    20 1   
    32    19    22 1   
    33    20    21 1   
    34    20    32 1   
    35    20    33 1   
    36    21    34 1   
    37    21    35 1   
    38    21    36 1   
@<TRIPOS>SUBSTRUCTURE
     1 U05         1 TEMP              0 ****  ****    0 ROOT
