@<TRIPOS>MOLECULE
U06
   51    53     1     0     0
SMALL
No Charge or Current Charge


@<TRIPOS>ATOM
      1 C4           4.6800    -1.5360    -1.2560 ca         1 U06       0.441900
      2 C5           3.9930    -0.5630    -0.5000 ca         1 U06      -0.197000
      3 C6           4.3670    -0.4450     0.8620 ca         1 U06       0.215300
      4 N1           5.3290    -1.2330     1.3870 nb         1 U06      -0.296000
      5 N3           5.6300    -2.3160    -0.7350 nb         1 U06      -0.347000
      6 CAA          2.3550     0.0950     2.3590 c3         1 U06      -0.084100
      7 CAB          3.7270     0.5580     1.8250 c3         1 U06      -0.136700
      8 C2           5.8970    -2.1140     0.5560 ca         1 U06       0.421900
      9 NAF          6.8560    -2.9000     1.0880 nv         1 U06      -1.071900
     10 NAI          4.4270    -1.7680    -2.5710 nv         1 U06      -1.079900
     11 CAK          2.9560     0.2610    -1.0670 cg         1 U06      -0.120000
     12 CAL          2.0660     0.9670    -1.4930 c1         1 U06      -0.120100
     13 CAM          0.9630     1.8420    -1.9100 c3         1 U06       0.076000
     14 CAN         -0.1250     1.8650    -0.8360 ca         1 U06      -0.122300
     15 CAU         -1.2910     1.0930    -1.0150 ca         1 U06      -0.070000
     16 CAO          0.0340     2.6230     0.3460 ca         1 U06       0.126100
     17 OAP          1.1880     3.3690     0.5090 os         1 U06      -0.344100
     18 CAQ          1.4770     4.0910     1.7180 c3         1 U06       0.151900
     19 CAR         -0.9780     2.5980     1.3290 ca         1 U06      -0.201000
     20 CAS         -2.1350     1.8260     1.1360 ca         1 U06      -0.073000
     21 CAT         -2.3170     1.0580    -0.0390 cp         1 U06      -0.021000
     22 CAV         -3.5510     0.2330    -0.2430 cp         1 U06      -0.084000
     23 CAW         -4.1940    -0.4070     0.8450 ca         1 U06      -0.125500
     24 CAX         -5.3510    -1.1830     0.6570 ca         1 U06      -0.093000
     25 CAY         -5.9110    -1.3460    -0.6310 ca         1 U06      -0.118600
     26 CBB         -7.1650    -2.1850    -0.8370 c          1 U06       0.711600
     27 OBD         -7.6820    -2.7150     0.1360 o          1 U06      -0.719000
     28 OBC         -7.6130    -2.3010    -1.9700 o          1 U06      -0.719000
     29 CAZ         -5.2750    -0.7100    -1.7220 ca         1 U06      -0.093000
     30 CBA         -4.1180     0.0630    -1.5290 ca         1 U06      -0.125500
     31 H1           1.6360    -0.0320     1.5410 hc         1 U06       0.040033
     32 H2           2.4490    -0.8620     2.8870 hc         1 U06       0.040033
     33 H3           1.9460     0.8350     3.0570 hc         1 U06       0.040033
     34 H4           4.3900     0.7370     2.6810 hc         1 U06       0.059700
     35 H5           3.6100     1.5330     1.3360 hc         1 U06       0.059700
     36 H6           7.1410    -3.7250     0.5650 hn         1 U06       0.492000
     37 H7           6.9320    -2.9520     2.1010 hn         1 U06       0.492000
     38 H8           3.5730    -1.3790    -2.9610 hn         1 U06       0.500500
     39 H9           4.7640    -2.6360    -2.9790 hn         1 U06       0.500500
     40 H10          1.3530     2.8510    -2.0940 hc         1 U06       0.058700
     41 H11          0.5670     1.4840    -2.8670 hc         1 U06       0.058700
     42 H12         -1.3950     0.4960    -1.9170 ha         1 U06       0.118000
     43 H13          2.4510     4.5890     1.6380 h1         1 U06       0.034700
     44 H14          0.7160     4.8600     1.9040 h1         1 U06       0.034700
     45 H15          1.5120     3.4120     2.5790 h1         1 U06       0.034700
     46 H16         -0.8890     3.1720     2.2470 ha         1 U06       0.107000
     47 H17         -2.9070     1.8340     1.9020 ha         1 U06       0.117000
     48 H18         -3.7850    -0.3150     1.8480 ha         1 U06       0.086500
     49 H19         -5.8110    -1.6600     1.5200 ha         1 U06       0.128500
     50 H21         -5.6790    -0.8110    -2.7270 ha         1 U06       0.128500
     51 H22         -3.6650     0.5480    -2.3900 ha         1 U06       0.086500
@<TRIPOS>BOND
     1     1     2 ar  
     2     1     5 ar  
     3     1    10 1   
     4     2     3 ar  
     5     2    11 1   
     6     3     4 ar  
     7     3     7 1   
     8     4     8 ar  
     9     5     8 ar  
    10     6     7 1   
    11     6    31 1   
    12     6    32 1   
    13     6    33 1   
    14     7    34 1   
    15     7    35 1   
    16     8     9 1   
    17     9    36 1   
    18     9    37 1   
    19    10    38 1   
    20    10    39 1   
    21    11    12 3   
    22    12    13 1   
    23    13    14 1   
    24    13    40 1   
    25    13    41 1   
    26    14    15 ar  
    27    14    16 ar  
    28    15    21 ar  
    29    15    42 1   
    30    16    17 1   
    31    16    19 ar  
    32    17    18 1   
    33    18    43 1   
    34    18    44 1   
    35    18    45 1   
    36    19    20 ar  
    37    19    46 1   
    38    20    21 ar  
    39    20    47 1   
    40    21    22 1   
    41    22    23 ar  
    42    22    30 ar  
    43    23    24 ar  
    44    23    48 1   
    45    24    25 ar  
    46    24    49 1   
    47    25    26 1   
    48    25    29 ar  
    49    26    27 1   
    50    26    28 1   
    51    29    30 ar  
    52    29    50 1   
    53    30    51 1   
@<TRIPOS>SUBSTRUCTURE
     1 U06         1 TEMP              0 ****  ****    0 ROOT
