@<TRIPOS>MOLECULE
U06
   51    53     1     0     0
SMALL
abcg2


@<TRIPOS>ATOM
      1 C4           4.7860    -1.4820    -1.1850 ca         1 U06       0.441900
      2 C5           4.0690    -0.5230    -0.4220 ca         1 U06      -0.197000
      3 C6           4.4870    -0.3500     0.8970 ca         1 U06       0.215300
      4 N1           5.4990    -1.0350     1.4160 nb         1 U06      -0.296000
      5 N3           5.7960    -2.1660    -0.6610 nb         1 U06      -0.347000
      6 CAA          2.4900    -0.0170     2.3710 c3         1 U06      -0.084100
      7 CAB          3.7690     0.6020     1.8060 c3         1 U06      -0.136700
      8 C2           6.1070    -1.9120     0.6090 ca         1 U06       0.421900
      9 NAF          7.1530    -2.5850     1.1250 nv         1 U06      -1.071900
     10 NAI          4.4670    -1.7200    -2.4620 nv         1 U06      -1.079900
     11 CAK          2.9820     0.2000    -0.9730 cg         1 U06      -0.120000
     12 CAL          2.0530     0.8300    -1.4160 c1         1 U06      -0.120100
     13 CAM          0.8950     1.5860    -1.8810 c3         1 U06       0.076000
     14 CAN         -0.1870     1.6460    -0.8300 ca         1 U06      -0.122300
     15 CAU         -1.3770     0.9620    -1.0000 ca         1 U06      -0.070000
     16 CAO          0.0140     2.3810     0.3470 ca         1 U06       0.126100
     17 OAP          1.1870     3.0290     0.4480 os         1 U06      -0.344100
     18 CAQ          1.4590     3.7670     1.6220 c3         1 U06       0.151900
     19 CAR         -0.9800     2.4060     1.3200 ca         1 U06      -0.201000
     20 CAS         -2.1640     1.7100     1.1230 ca         1 U06      -0.073000
     21 CAT         -2.3910     0.9760    -0.0370 cp         1 U06      -0.021000
     22 CAV         -3.6560     0.2470    -0.2490 cp         1 U06      -0.084000
     23 CAW         -4.3380    -0.3430     0.8180 ca         1 U06      -0.125500
     24 CAX         -5.5330    -1.0140     0.6180 ca         1 U06      -0.093000
     25 CAY         -6.0940    -1.1250    -0.6520 ca         1 U06      -0.118600
     26 CBB         -7.4110    -1.8570    -0.8660 c          1 U06       0.711600
     27 OBD         -7.9350    -2.3690     0.1420 o          1 U06      -0.719000
     28 OBC         -7.8550    -1.8800    -2.0300 o          1 U06      -0.719000
     29 CAZ         -5.4120    -0.5430    -1.7180 ca         1 U06      -0.093000
     30 CBA         -4.2170     0.1300    -1.5230 ca         1 U06      -0.125500
     31 H1           1.7730    -0.2350     1.5800 hc         1 U06       0.040033
     32 H2           2.7030    -0.9440     2.9050 hc         1 U06       0.040033
     33 H3           2.0130     0.6690     3.0710 hc         1 U06       0.040033
     34 H4           4.4390     0.8780     2.6210 hc         1 U06       0.059700
     35 H5           3.5130     1.5130     1.2620 hc         1 U06       0.059700
     36 H6           7.5340    -3.3640     0.6180 hn         1 U06       0.492000
     37 H7           7.3180    -2.5460     2.1150 hn         1 U06       0.492000
     38 H8           3.6920    -1.2590    -2.9030 hn         1 U06       0.500500
     39 H9           4.9580    -2.4290    -2.9780 hn         1 U06       0.500500
     40 H10          1.2040     2.5930    -2.1750 hc         1 U06       0.058700
     41 H11          0.4970     1.1150    -2.7830 hc         1 U06       0.058700
     42 H12         -1.5100     0.3850    -1.9070 ha         1 U06       0.118000
     43 H13          2.4460     4.2030     1.4910 h1         1 U06       0.034700
     44 H14          0.7350     4.5720     1.7740 h1         1 U06       0.034700
     45 H15          1.4700     3.1310     2.5100 h1         1 U06       0.034700
     46 H16         -0.8580     2.9740     2.2330 ha         1 U06       0.107000
     47 H17         -2.9280     1.7700     1.8880 ha         1 U06       0.117000
     48 H18         -3.9210    -0.2940     1.8170 ha         1 U06       0.086500
     49 H19         -6.0380    -1.4660     1.4610 ha         1 U06       0.128500
     50 H21         -5.8270    -0.6110    -2.7150 ha         1 U06       0.128500
     51 H22         -3.7260     0.5920    -2.3710 ha         1 U06       0.086500
@<TRIPOS>BOND
     1     1     2 ar  
     2     1     5 ar  
     3     1    10 1   
     4     2     3 ar  
     5     2    11 1   
     6     3     4 ar  
     7     3     7 1   
     8     4     8 ar  
     9     5     8 ar  
    10     6     7 1   
    11     6    31 1   
    12     6    32 1   
    13     6    33 1   
    14     7    34 1   
    15     7    35 1   
    16     8     9 1   
    17     9    36 1   
    18     9    37 1   
    19    10    38 1   
    20    10    39 1   
    21    11    12 3   
    22    12    13 1   
    23    13    14 1   
    24    13    40 1   
    25    13    41 1   
    26    14    15 ar  
    27    14    16 ar  
    28    15    21 ar  
    29    15    42 1   
    30    16    17 1   
    31    16    19 ar  
    32    17    18 1   
    33    18    43 1   
    34    18    44 1   
    35    18    45 1   
    36    19    20 ar  
    37    19    46 1   
    38    20    21 ar  
    39    20    47 1   
    40    21    22 1   
    41    22    23 ar  
    42    22    30 ar  
    43    23    24 ar  
    44    23    48 1   
    45    24    25 ar  
    46    24    49 1   
    47    25    26 1   
    48    25    29 ar  
    49    26    27 1   
    50    26    28 1   
    51    29    30 ar  
    52    29    50 1   
    53    30    51 1   
@<TRIPOS>SUBSTRUCTURE
     1 U06         1 TEMP              0 ****  ****    0 ROOT
