@<TRIPOS>MOLECULE
U07
   36    38     1     0     0
SMALL
abcg2


@<TRIPOS>ATOM
      1 C01         32.4630    32.7040     5.3810 c2         1 U07       0.177900
      2 C02         33.3630    31.7450     5.0720 ce         1 U07      -0.220400
      3 C03         33.0750    30.3050     5.2440 ca         1 U07      -0.018800
      4 C04         33.7260    29.5710     6.2340 ca         1 U07      -0.085500
      5 C05         33.4650    28.2180     6.3970 ca         1 U07      -0.113000
      6 C06         32.5500    27.5800     5.5690 ca         1 U07      -0.106000
      7 C07         31.8980    28.3020     4.5790 ca         1 U07      -0.113000
      8 C08         32.1600    29.6570     4.4170 ca         1 U07      -0.085500
      9 C09         34.6730    32.1410     4.6090 c          1 U07       0.560500
     10 C10         35.0190    33.5860     4.5730 ce         1 U07       0.044900
     11 C11         34.1270    34.5430     4.8610 cf         1 U07      -0.129400
     12 C12         34.4520    35.9800     4.8470 ca         1 U07      -0.031800
     13 C13         33.6610    36.8860     4.1380 ca         1 U07      -0.098000
     14 C14         33.9530    38.2420     4.1450 ca         1 U07      -0.109000
     15 C15         35.0400    38.7180     4.8650 ca         1 U07      -0.106000
     16 C16         35.8310    37.8270     5.5780 ca         1 U07      -0.109000
     17 C17         35.5400    36.4710     5.5700 ca         1 U07      -0.098000
     18 C18         32.6980    34.1700     5.1360 c6         1 U07       0.217700
     19 O01         31.2800    32.3850     5.8750 oh         1 U07      -0.499100
     20 O02         35.5390    31.3430     4.2740 o          1 U07      -0.533100
     21 O03         36.2810    33.8480     4.2170 oh         1 U07      -0.514100
     22 O04         32.1540    34.8540     6.2410 oh         1 U07      -0.656000
     23 H3          34.4360    30.0630     6.8870 ha         1 U07       0.111500
     24 H4          33.9760    27.6620     7.1720 ha         1 U07       0.111000
     25 H5          32.3470    26.5240     5.6950 ha         1 U07       0.110000
     26 H6          31.1860    27.8110     3.9280 ha         1 U07       0.111000
     27 H7          31.6560    30.2130     3.6370 ha         1 U07       0.111500
     28 H10         32.8170    36.5330     3.5560 ha         1 U07       0.112000
     29 H11         33.3310    38.9260     3.5830 ha         1 U07       0.113500
     30 H12         35.2680    39.7760     4.8730 ha         1 U07       0.114000
     31 H13         36.6770    38.1890     6.1490 ha         1 U07       0.113500
     32 H14         36.1540    35.7910     6.1460 ha         1 U07       0.112000
     33 H15         32.1150    34.3980     4.2280 h1         1 U07       0.059700
     34 H16         30.8300    33.1870     6.1850 ho         1 U07       0.488000
     35 H17         36.7140    32.9960     4.0400 ho         1 U07       0.490000
     36 H18         31.7960    35.6980     5.9480 ho         1 U07       0.465000
@<TRIPOS>BOND
     1     1     2 2   
     2     1    18 1   
     3     1    19 1   
     4     2     3 1   
     5     2     9 1   
     6     3     4 ar  
     7     3     8 ar  
     8     4     5 ar  
     9     4    23 1   
    10     5     6 ar  
    11     5    24 1   
    12     6     7 ar  
    13     6    25 1   
    14     7     8 ar  
    15     7    26 1   
    16     8    27 1   
    17     9    10 1   
    18     9    20 2   
    19    10    11 2   
    20    10    21 1   
    21    11    12 1   
    22    11    18 1   
    23    12    13 ar  
    24    12    17 ar  
    25    13    14 ar  
    26    13    28 1   
    27    14    15 ar  
    28    14    29 1   
    29    15    16 ar  
    30    15    30 1   
    31    16    17 ar  
    32    16    31 1   
    33    17    32 1   
    34    18    22 1   
    35    18    33 1   
    36    19    34 1   
    37    21    35 1   
    38    22    36 1   
@<TRIPOS>SUBSTRUCTURE
     1 U07         1 TEMP              0 ****  ****    0 ROOT
