@<TRIPOS>MOLECULE
U07
   36    38     1     0     0
SMALL
No Charge or Current Charge


@<TRIPOS>ATOM
      1 C01         32.4560    32.6680     5.2740 c2         1 U07       0.177900
      2 C02         33.3790    31.7060     5.0570 ce         1 U07      -0.220400
      3 C03         33.0700    30.2560     5.2390 ca         1 U07      -0.018800
      4 C04         33.7740    29.4900     6.1900 ca         1 U07      -0.085500
      5 C05         33.4800    28.1250     6.3610 ca         1 U07      -0.113000
      6 C06         32.4800    27.5180     5.5830 ca         1 U07      -0.106000
      7 C07         31.7740    28.2760     4.6340 ca         1 U07      -0.113000
      8 C08         32.0680    29.6410     4.4640 ca         1 U07      -0.085500
      9 C09         34.7750    32.0770     4.6580 c          1 U07       0.560500
     10 C10         35.1010    33.5550     4.6070 ce         1 U07       0.044900
     11 C11         34.1750    34.5420     4.8080 cf         1 U07      -0.129400
     12 C12         34.4310    36.0050     4.8190 ca         1 U07      -0.031800
     13 C13         33.5940    36.8970     4.1120 ca         1 U07      -0.098000
     14 C14         33.8390    38.2810     4.1400 ca         1 U07      -0.109000
     15 C15         34.9210    38.7910     4.8760 ca         1 U07      -0.106000
     16 C16         35.7590    37.9140     5.5820 ca         1 U07      -0.109000
     17 C17         35.5150    36.5300     5.5530 ca         1 U07      -0.098000
     18 C18         32.7030    34.1690     5.0750 c6         1 U07       0.217700
     19 O01         31.2120    32.4110     5.7200 oh         1 U07      -0.499100
     20 O02         35.6340    31.2360     4.4080 o          1 U07      -0.533100
     21 O03         36.4080    33.8560     4.3230 oh         1 U07      -0.514100
     22 O04         32.1450    34.8850     6.1890 oh         1 U07      -0.656000
     23 H3          34.5470    29.9530     6.7980 ha         1 U07       0.111500
     24 H4          34.0270    27.5400     7.0970 ha         1 U07       0.111000
     25 H5          32.2530    26.4620     5.7150 ha         1 U07       0.110000
     26 H6          30.9990    27.8080     4.0310 ha         1 U07       0.111000
     27 H7          31.5170    30.2220     3.7280 ha         1 U07       0.111500
     28 H10         32.7600    36.5240     3.5230 ha         1 U07       0.112000
     29 H11         33.1910    38.9590     3.5880 ha         1 U07       0.113500
     30 H12         35.1100    39.8620     4.8980 ha         1 U07       0.114000
     31 H13         36.5970    38.3050     6.1540 ha         1 U07       0.113500
     32 H14         36.1660    35.8630     6.1140 ha         1 U07       0.112000
     33 H15         32.1450    34.4430     4.1670 h1         1 U07       0.059700
     34 H16         30.8760    33.2830     6.0320 ho         1 U07       0.488000
     35 H17         36.8640    32.9900     4.2000 ho         1 U07       0.490000
     36 H18         32.5060    35.7980     6.1300 ho         1 U07       0.465000
@<TRIPOS>BOND
     1     1     2 2   
     2     1    18 1   
     3     1    19 1   
     4     2     3 1   
     5     2     9 1   
     6     3     4 ar  
     7     3     8 ar  
     8     4     5 ar  
     9     4    23 1   
    10     5     6 ar  
    11     5    24 1   
    12     6     7 ar  
    13     6    25 1   
    14     7     8 ar  
    15     7    26 1   
    16     8    27 1   
    17     9    10 1   
    18     9    20 2   
    19    10    11 2   
    20    10    21 1   
    21    11    12 1   
    22    11    18 1   
    23    12    13 ar  
    24    12    17 ar  
    25    13    14 ar  
    26    13    28 1   
    27    14    15 ar  
    28    14    29 1   
    29    15    16 ar  
    30    15    30 1   
    31    16    17 ar  
    32    16    31 1   
    33    17    32 1   
    34    18    22 1   
    35    18    33 1   
    36    19    34 1   
    37    21    35 1   
    38    22    36 1   
@<TRIPOS>SUBSTRUCTURE
     1 U07         1 TEMP              0 ****  ****    0 ROOT
