@<TRIPOS>MOLECULE
U08
   34    36     1     0     0
SMALL
No Charge or Current Charge


@<TRIPOS>ATOM
      1 C8          16.5590    -1.5070     3.6420 c1         1 U08       0.313900
      2 C5          18.7950    -2.1410     4.5400 cc         1 U08      -0.104300
      3 C6          20.2020    -3.4770     1.7610 c3         1 U08       0.142600
      4 N1          18.6820    -3.2310     5.4000 na         1 U08       0.314900
      5 C2          18.6570    -0.8410     2.3090 c5         1 U08       0.113300
      6 N3          15.4670    -1.2320     3.9540 n1         1 U08      -0.440000
      7 C4          18.7580    -3.0390     1.3660 c5         1 U08       0.158300
      8 O2          18.0420     0.4680     2.2220 oh         1 U08      -0.698000
      9 N2          17.7770    -4.2570     5.2610 nc         1 U08      -0.274800
     10 N4          18.7340    -5.2180     7.3300 nd         1 U08      -0.303000
     11 C7          19.7910    -1.3630     5.1130 cd         1 U08      -0.231000
     12 C1          17.9540    -1.8960     3.2870 c5         1 U08       0.304300
     13 C10         20.2720    -2.0050     6.2930 cd         1 U08      -0.206000
     14 C11         19.5480    -4.1900     7.3910 cc         1 U08       0.444900
     15 C12         17.8530    -5.2000     6.2270 cd         1 U08       0.135900
     16 C3          18.6010    -1.5540     0.9250 c5         1 U08       0.154300
     17 C9          19.5500    -3.1630     6.4380 cc         1 U08      -0.251000
     18 N5          20.4100    -4.1190     8.4260 nv         1 U08      -1.064900
     19 O1          17.8790    -3.1270     2.5090 os         1 U08      -0.416000
     20 O3          17.3480    -1.2810     0.2820 oh         1 U08      -0.700000
     21 H1          20.1570    -4.5090     2.1340 h1         1 U08       0.031700
     22 H2          20.5780    -2.8490     2.5780 h1         1 U08       0.031700
     23 H3          19.7160    -0.7240     2.5740 h1         1 U08       0.051700
     24 H4          18.3990    -3.7230     0.5850 h1         1 U08       0.109700
     25 H5          18.4050     1.0250     2.9540 ho         1 U08       0.521000
     26 H6          21.9650    -3.7520     0.9240 ho         1 U08       0.509000
     27 H7          20.1560    -0.4090     4.7390 ha         1 U08       0.198000
     28 H8          21.0550    -1.6350     6.9540 ha         1 U08       0.202000
     29 H9          17.1710    -6.0390     6.1660 h5         1 U08       0.061100
     30 H10         19.4360    -1.2380     0.2820 h1         1 U08       0.069700
     31 H11         20.2300    -4.7230     9.2240 hn         1 U08       0.507500
     32 H12         20.8260    -3.2160     8.6340 hn         1 U08       0.507500
     33 H13         17.0970    -0.3960     0.6500 ho         1 U08       0.526000
     34 O4          21.0910    -3.4000     0.6330 oh         1 U08      -0.720000
@<TRIPOS>BOND
     1     1     6 3   
     2     1    12 1   
     3     2     4 1   
     4     2    11 2   
     5     2    12 1   
     6     3     7 1   
     7     3    21 1   
     8     3    22 1   
     9     3    34 1   
    10     4     9 1   
    11     4    17 1   
    12     5     8 1   
    13     5    12 1   
    14     5    16 1   
    15     5    23 1   
    16     7    16 1   
    17     7    19 1   
    18     7    24 1   
    19     8    25 1   
    20     9    15 2   
    21    10    14 2   
    22    10    15 1   
    23    11    13 1   
    24    11    27 1   
    25    12    19 1   
    26    13    17 2   
    27    13    28 1   
    28    14    17 1   
    29    14    18 1   
    30    15    29 1   
    31    16    20 1   
    32    16    30 1   
    33    18    31 1   
    34    18    32 1   
    35    20    33 1   
    36    26    34 1   
@<TRIPOS>SUBSTRUCTURE
     1 U08         1 TEMP              0 ****  ****    0 ROOT
