@<TRIPOS>MOLECULE
U08
   34    36     1     0     0
SMALL
abcg2


@<TRIPOS>ATOM
      1 C8          16.8550    -2.0410     3.5470 c1         1 U08       0.313900
      2 C5          18.9910    -2.2420     4.6680 cc         1 U08      -0.104300
      3 C6          20.3730    -3.3370     1.0050 c3         1 U08       0.142600
      4 N1          18.6790    -3.1930     5.5800 na         1 U08       0.314900
      5 C2          18.8170    -1.0000     2.4660 c5         1 U08       0.113300
      6 N3          15.7280    -1.9310     3.7430 n1         1 U08      -0.440000
      7 C4          18.9040    -3.0110     1.2320 c5         1 U08       0.158300
      8 O2          18.1490     0.1960     2.6870 oh         1 U08      -0.698000
      9 N2          17.7610    -4.1610     5.4070 nc         1 U08      -0.274800
     10 N4          18.3170    -4.9280     7.5920 nd         1 U08      -0.303000
     11 C7          19.9780    -1.4450     5.2280 cd         1 U08      -0.231000
     12 C1          18.3150    -2.1810     3.3390 c5         1 U08       0.304300
     13 C10         20.2680    -1.9340     6.5070 cd         1 U08      -0.206000
     14 C11         19.2190    -3.9780     7.7500 cc         1 U08       0.444900
     15 C12         17.6460    -4.9530     6.4270 cd         1 U08       0.135900
     16 C3          18.5690    -1.5390     1.0590 c5         1 U08       0.154300
     17 C9          19.4460    -3.0290     6.7080 cc         1 U08      -0.251000
     18 N5          19.9130    -3.9090     8.8800 nv         1 U08      -1.064900
     19 O1          18.5680    -3.3400     2.5870 os         1 U08      -0.416000
     20 O3          17.2190    -1.4310     0.6910 oh         1 U08      -0.700000
     21 H1          20.5530    -4.3670     1.3360 h1         1 U08       0.031700
     22 H2          21.0030    -2.6860     1.6260 h1         1 U08       0.031700
     23 H3          19.8990    -0.9050     2.6150 h1         1 U08       0.051700
     24 H4          18.2940    -3.6280     0.5660 h1         1 U08       0.109700
     25 H5          18.5850     0.6920     3.3860 ho         1 U08       0.521000
     26 H6          21.5770    -3.3100    -0.5120 ho         1 U08       0.509000
     27 H7          20.4510    -0.5950     4.7620 ha         1 U08       0.198000
     28 H8          20.9920    -1.5340     7.1990 ha         1 U08       0.202000
     29 H9          16.9100    -5.7400     6.3130 h5         1 U08       0.061100
     30 H10         19.2300    -1.0550     0.3310 h1         1 U08       0.069700
     31 H11         19.7370    -4.5730     9.6160 hn         1 U08       0.507500
     32 H12         20.6080    -3.2010     9.0420 hn         1 U08       0.507500
     33 H13         16.9710    -0.5000     0.6890 ho         1 U08       0.526000
     34 O4          20.6370    -3.1700    -0.3660 oh         1 U08      -0.720000
@<TRIPOS>BOND
     1     1     6 3   
     2     1    12 1   
     3     2     4 1   
     4     2    11 2   
     5     2    12 1   
     6     3     7 1   
     7     3    21 1   
     8     3    22 1   
     9     3    34 1   
    10     4     9 1   
    11     4    17 1   
    12     5     8 1   
    13     5    12 1   
    14     5    16 1   
    15     5    23 1   
    16     7    16 1   
    17     7    19 1   
    18     7    24 1   
    19     8    25 1   
    20     9    15 2   
    21    10    14 2   
    22    10    15 1   
    23    11    13 1   
    24    11    27 1   
    25    12    19 1   
    26    13    17 2   
    27    13    28 1   
    28    14    17 1   
    29    14    18 1   
    30    15    29 1   
    31    16    20 1   
    32    16    30 1   
    33    18    31 1   
    34    18    32 1   
    35    20    33 1   
    36    26    34 1   
@<TRIPOS>SUBSTRUCTURE
     1 U08         1 TEMP              0 ****  ****    0 ROOT
