@<TRIPOS>MOLECULE
U0A
   50    53     1     0     0
SMALL
abcg2


@<TRIPOS>ATOM
      1 C11        203.5270   268.8630   341.5490 ca         1 U0A      -0.131000
      2 C12        203.8910   269.0480   342.8830 ca         1 U0A       0.090600
      3 C14        203.7590   269.8690   340.6200 ca         1 U0A      -0.055000
      4 C01        198.9350   267.4700   342.0820 ca         1 U0A      -0.096000
      5 C02        198.9830   267.4950   343.4690 ca         1 U0A      -0.101000
      6 C03        200.1110   267.4300   341.3490 ca         1 U0A      -0.077000
      7 C04        200.2050   267.4570   344.1200 ca         1 U0A      -0.067000
      8 C05        201.3950   267.4180   343.3960 ca         1 U0A      -0.115600
      9 C06        201.3370   267.4120   342.0020 ca         1 U0A      -0.096000
     10 C07        202.6590   267.2910   344.1790 c          1 U0A       0.590600
     11 C15        204.4860   270.2440   343.2640 ca         1 U0A      -0.100000
     12 C16        204.3830   271.0450   341.0010 ca         1 U0A      -0.115000
     13 C18        204.7560   271.2340   342.3290 ca         1 U0A      -0.117600
     14 C25        205.3730   272.5090   342.8140 c          1 U0A       0.608700
     15 C28        206.6840   274.4780   342.1810 c3         1 U0A       0.112000
     16 C30        205.6430   275.5900   342.0000 c3         1 U0A      -0.069100
     17 C33        205.0660   275.5810   340.6160 ca         1 U0A      -0.021300
     18 C36        203.9060   274.8660   340.3280 ca         1 U0A      -0.132500
     19 C37        203.4070   274.8010   339.0360 ca         1 U0A      -0.016500
     20 C39        205.7210   276.2370   339.5760 ca         1 U0A      -0.132500
     21 C40        204.0770   275.4670   338.0190 ca         1 U0A      -0.325500
     22 C42        205.2350   276.1890   338.2800 ca         1 U0A      -0.016500
     23 N09        203.7440   268.0380   343.8420 ns         1 U0A      -0.408100
     24 N27        206.1410   273.1610   341.9290 ns         1 U0A      -0.503900
     25 N48        202.3700   276.6750   336.2210 n8         1 U0A      -0.994100
     26 O08        202.7010   266.5540   345.1490 o          1 U0A      -0.535000
     27 O26        205.1730   272.9100   343.9520 o          1 U0A      -0.597100
     28 O46        204.5230   275.7050   335.4540 o          1 U0A      -0.529500
     29 O47        202.6490   274.2090   336.2220 o          1 U0A      -0.529500
     30 S10        202.8190   267.3310   341.0340 ss         1 U0A       0.054000
     31 S45        203.4300   275.4260   336.3710 sy         1 U0A       1.139600
     32 H1         203.4500   269.7290   339.5930 ha         1 U0A       0.137000
     33 H2         197.9830   267.4880   341.5690 ha         1 U0A       0.120000
     34 H3         198.0690   267.5360   344.0470 ha         1 U0A       0.121000
     35 H4         200.0790   267.4190   340.2680 ha         1 U0A       0.131000
     36 H5         200.2370   267.4580   345.2010 ha         1 U0A       0.133000
     37 H6         204.7510   270.3960   344.3030 ha         1 U0A       0.142000
     38 H7         204.5380   271.8180   340.2580 ha         1 U0A       0.121000
     39 H8         207.5110   274.6260   341.4880 h1         1 U0A       0.059700
     40 H9         207.0950   274.5220   343.1900 h1         1 U0A       0.059700
     41 H10        206.1300   276.5460   342.2020 hc         1 U0A       0.068700
     42 H11        204.8530   275.4710   342.7440 hc         1 U0A       0.068700
     43 H12        203.3770   274.3520   341.1220 ha         1 U0A       0.122500
     44 H14        202.5080   274.2330   338.8360 ha         1 U0A       0.137000
     45 H15        206.6270   276.7950   339.7790 ha         1 U0A       0.122500
     46 H16        205.7590   276.7080   337.4890 ha         1 U0A       0.137000
     47 H13        204.5030   267.9640   344.5070 hn         1 U0A       0.328500
     48 H29        206.3310   272.7400   341.0350 hn         1 U0A       0.323500
     49 H50        201.5550   276.5950   336.8180 hn         1 U0A       0.476000
     50 H49        202.8010   277.5880   336.3100 hn         1 U0A       0.476000
@<TRIPOS>BOND
     1     1     2 ar  
     2     1     3 ar  
     3     1    30 1   
     4     2    11 ar  
     5     2    23 1   
     6     3    12 ar  
     7     3    32 1   
     8     4     5 ar  
     9     4     6 ar  
    10     4    33 1   
    11     5     7 ar  
    12     5    34 1   
    13     6     9 ar  
    14     6    35 1   
    15     7     8 ar  
    16     7    36 1   
    17     8     9 ar  
    18     8    10 1   
    19     9    30 1   
    20    10    23 1   
    21    10    26 2   
    22    11    13 ar  
    23    11    37 1   
    24    12    13 ar  
    25    12    38 1   
    26    13    14 1   
    27    14    24 1   
    28    14    27 2   
    29    15    16 1   
    30    15    24 1   
    31    15    39 1   
    32    15    40 1   
    33    16    17 1   
    34    16    41 1   
    35    16    42 1   
    36    17    18 ar  
    37    17    20 ar  
    38    18    19 ar  
    39    18    43 1   
    40    19    21 ar  
    41    19    44 1   
    42    20    22 ar  
    43    20    45 1   
    44    21    22 ar  
    45    21    31 1   
    46    22    46 1   
    47    23    47 1   
    48    24    48 1   
    49    25    31 1   
    50    25    49 1   
    51    25    50 1   
    52    28    31 2   
    53    29    31 2   
@<TRIPOS>SUBSTRUCTURE
     1 U0A         1 TEMP              0 ****  ****    0 ROOT
