@<TRIPOS>MOLECULE
U0A
   50    53     1     0     0
SMALL
No Charge or Current Charge


@<TRIPOS>ATOM
      1 C11        203.9690   268.6670   341.9070 ca         1 U0A      -0.131000
      2 C12        203.9200   269.2050   343.2020 ca         1 U0A       0.090600
      3 C14        204.6330   269.3600   340.8820 ca         1 U0A      -0.055000
      4 C01        199.2560   267.6900   341.0730 ca         1 U0A      -0.096000
      5 C02        198.8170   268.0120   342.3650 ca         1 U0A      -0.101000
      6 C03        200.6160   267.4330   340.8430 ca         1 U0A      -0.077000
      7 C04        199.7390   268.0890   343.4210 ca         1 U0A      -0.067000
      8 C05        201.1180   267.8640   343.2020 ca         1 U0A      -0.115600
      9 C06        201.5450   267.5140   341.8980 ca         1 U0A      -0.096000
     10 C07        202.0480   267.9520   344.3950 c          1 U0A       0.590600
     11 C15        204.5680   270.4250   343.4690 ca         1 U0A      -0.100000
     12 C16        205.2580   270.5910   341.1460 ca         1 U0A      -0.115000
     13 C18        205.2390   271.1410   342.4500 ca         1 U0A      -0.117600
     14 C25        205.9050   272.4630   342.7830 c          1 U0A       0.608700
     15 C28        207.1770   274.4260   341.8410 c3         1 U0A       0.112000
     16 C30        206.1220   275.5530   341.8100 c3         1 U0A      -0.069100
     17 C33        205.2000   275.4610   340.5990 ca         1 U0A      -0.021300
     18 C36        203.9170   274.8970   340.7210 ca         1 U0A      -0.132500
     19 C37        203.0710   274.7970   339.6030 ca         1 U0A      -0.016500
     20 C39        205.6330   275.9260   339.3430 ca         1 U0A      -0.132500
     21 C40        203.5070   275.2660   338.3450 ca         1 U0A      -0.325500
     22 C42        204.7930   275.8320   338.2200 ca         1 U0A      -0.016500
     23 N09        203.2930   268.5310   344.2730 ns         1 U0A      -0.408100
     24 N27        206.5730   273.0930   341.7550 ns         1 U0A      -0.503900
     25 N48        201.6990   276.6060   336.9470 n8         1 U0A      -0.994100
     26 O08        201.7050   267.5220   345.4870 o          1 U0A      -0.535000
     27 O26        205.8530   272.9570   343.9020 o          1 U0A      -0.597100
     28 O46        203.2220   275.1410   335.6780 o          1 U0A      -0.529500
     29 O47        201.3540   274.2010   337.1730 o          1 U0A      -0.529500
     30 S10        203.2390   267.0870   341.5540 ss         1 U0A       0.054000
     31 S45        202.4360   275.1480   336.9110 sy         1 U0A       1.139600
     32 H1         204.6690   268.9420   339.8780 ha         1 U0A       0.137000
     33 H2         198.5420   267.6250   340.2540 ha         1 U0A       0.120000
     34 H3         197.7610   268.2000   342.5500 ha         1 U0A       0.121000
     35 H4         200.9490   267.1600   339.8440 ha         1 U0A       0.131000
     36 H5         199.3810   268.3390   344.4190 ha         1 U0A       0.133000
     37 H6         204.5390   270.8250   344.4800 ha         1 U0A       0.142000
     38 H7         205.7560   271.0980   340.3230 ha         1 U0A       0.121000
     39 H8         207.8620   274.5510   340.9920 h1         1 U0A       0.059700
     40 H9         207.7690   274.4990   342.7630 h1         1 U0A       0.059700
     41 H10        206.6390   276.5190   341.8170 hc         1 U0A       0.068700
     42 H11        205.5360   275.5190   342.7360 hc         1 U0A       0.068700
     43 H12        203.5730   274.5270   341.6840 ha         1 U0A       0.122500
     44 H14        202.0830   274.3540   339.7210 ha         1 U0A       0.137000
     45 H15        206.6230   276.3610   339.2350 ha         1 U0A       0.122500
     46 H16        205.1460   276.2000   337.2570 ha         1 U0A       0.137000
     47 H13        203.8060   268.5560   345.1450 hn         1 U0A       0.328500
     48 H29        206.5740   272.6250   340.8590 hn         1 U0A       0.323500
     49 H50        200.7220   276.3260   336.9720 hn         1 U0A       0.476000
     50 H49        201.8910   276.9110   337.8980 hn         1 U0A       0.476000
@<TRIPOS>BOND
     1     1     2 ar  
     2     1     3 ar  
     3     1    30 1   
     4     2    11 ar  
     5     2    23 1   
     6     3    12 ar  
     7     3    32 1   
     8     4     5 ar  
     9     4     6 ar  
    10     4    33 1   
    11     5     7 ar  
    12     5    34 1   
    13     6     9 ar  
    14     6    35 1   
    15     7     8 ar  
    16     7    36 1   
    17     8     9 ar  
    18     8    10 1   
    19     9    30 1   
    20    10    23 1   
    21    10    26 2   
    22    11    13 ar  
    23    11    37 1   
    24    12    13 ar  
    25    12    38 1   
    26    13    14 1   
    27    14    24 1   
    28    14    27 2   
    29    15    16 1   
    30    15    24 1   
    31    15    39 1   
    32    15    40 1   
    33    16    17 1   
    34    16    41 1   
    35    16    42 1   
    36    17    18 ar  
    37    17    20 ar  
    38    18    19 ar  
    39    18    43 1   
    40    19    21 ar  
    41    19    44 1   
    42    20    22 ar  
    43    20    45 1   
    44    21    22 ar  
    45    21    31 1   
    46    22    46 1   
    47    23    47 1   
    48    24    48 1   
    49    25    31 1   
    50    25    49 1   
    51    25    50 1   
    52    28    31 2   
    53    29    31 2   
@<TRIPOS>SUBSTRUCTURE
     1 U0A         1 TEMP              0 ****  ****    0 ROOT
