@<TRIPOS>MOLECULE
U0C
   66    70     1     0     0
SMALL
No Charge or Current Charge


@<TRIPOS>ATOM
      1 C01        -41.8080    10.7510    -4.3460 c3         1 U0C       0.145900
      2 C03        -40.3620    10.3210    -6.3150 ca         1 U0C       0.151100
      3 C04        -39.1590    10.6210    -7.0020 ca         1 U0C       0.033100
      4 C06        -37.0650    12.0140    -6.9380 c3         1 U0C       0.148900
      5 C07        -38.8790     9.9520    -8.2340 ca         1 U0C       0.151100
      6 C09        -37.3450     9.5110   -10.1380 c3         1 U0C       0.145900
      7 C10        -39.8100     9.0140    -8.7350 ca         1 U0C      -0.210000
      8 C11        -40.9980     8.7000    -8.0450 cp         1 U0C       0.026000
      9 C12        -41.9660     7.7040    -8.5960 cp         1 U0C      -0.074000
     10 C13        -43.3310     8.0580    -8.7260 ca         1 U0C       0.339900
     11 C15        -43.9040     6.0140    -9.6360 ca         1 U0C       0.339900
     12 C16        -42.5740     5.5330    -9.5620 cp         1 U0C      -0.076000
     13 C17        -41.5860     6.3940    -9.0100 ca         1 U0C      -0.023300
     14 C18        -40.1630     5.8530    -8.8110 c3         1 U0C       0.195100
     15 C21        -40.1450     5.1630   -11.2050 c3         1 U0C       0.200100
     16 C22        -41.0360     3.9740   -10.8380 ca         1 U0C      -0.068300
     17 C23        -42.2170     4.1710   -10.0730 cp         1 U0C      -0.070000
     18 C24        -43.0390     3.0530    -9.8010 ca         1 U0C      -0.064000
     19 C25        -42.6900     1.7730   -10.2630 ca         1 U0C      -0.156000
     20 C26        -41.5160     1.5740   -11.0100 ca         1 U0C       0.310000
     21 C28        -42.1620    -0.5250   -12.2630 c6         1 U0C       0.163300
     22 C29        -41.8890    -2.0640   -12.1900 c6         1 U0C       0.140300
     23 C31        -39.5320    -1.6640   -11.6430 c6         1 U0C       0.140300
     24 C32        -39.7520    -0.1160   -11.7030 c6         1 U0C       0.163300
     25 C33        -40.6960     2.6840   -11.2930 ca         1 U0C      -0.169000
     26 C34        -41.2650     9.3710    -6.8370 ca         1 U0C      -0.210000
     27 N14        -44.2860     7.2430    -9.2270 nb         1 U0C      -0.662000
     28 N19        -39.3700     5.7130   -10.0620 n3         1 U0C      -0.711600
     29 N27        -41.1790     0.2740   -11.4620 nh         1 U0C      -0.793400
     30 N30        -40.4770    -2.4170   -12.5190 n7         1 U0C      -0.838400
     31 O02        -40.6190    10.9800    -5.1220 os         1 U0C      -0.333100
     32 O05        -38.3250    11.5680    -6.4050 os         1 U0C      -0.336100
     33 O08        -37.7120    10.2110    -8.9350 os         1 U0C      -0.333100
     34 H1         -41.8020    11.3800    -3.4470 h1         1 U0C       0.043867
     35 H2         -42.7070    10.9970    -4.9260 h1         1 U0C       0.043867
     36 H3         -41.8700     9.7030    -4.0260 h1         1 U0C       0.043867
     37 H4         -36.6180    12.7620    -6.2720 h1         1 U0C       0.036033
     38 H5         -36.3580    11.1790    -7.0240 h1         1 U0C       0.036033
     39 H6         -37.1980    12.4800    -7.9230 h1         1 U0C       0.036033
     40 H7         -36.3700     9.8620   -10.4980 h1         1 U0C       0.043867
     41 H8         -37.2700     8.4320    -9.9540 h1         1 U0C       0.043867
     42 H9         -38.0820     9.6850   -10.9320 h1         1 U0C       0.043867
     43 H10        -39.6320     8.5070    -9.6780 ha         1 U0C       0.132500
     44 H11        -43.6690     9.0480    -8.4200 h4         1 U0C       0.023100
     45 H12        -44.6910     5.3880   -10.0560 h4         1 U0C       0.022100
     46 H13        -40.2550     4.8710    -8.3260 h1         1 U0C       0.055700
     47 H14        -39.6200     6.4790    -8.0910 h1         1 U0C       0.055700
     48 H15        -37.5150     5.4900    -9.0400 h1         1 U0C       0.035367
     49 H16        -38.2720     3.9590    -9.5440 h1         1 U0C       0.035367
     50 H17        -37.4800     5.0050   -10.7470 h1         1 U0C       0.035367
     51 H18        -39.4710     4.8800   -12.0250 h1         1 U0C       0.061700
     52 H19        -40.7930     5.9510   -11.6140 h1         1 U0C       0.061700
     53 H20        -43.9440     3.1750    -9.2110 ha         1 U0C       0.116000
     54 H21        -43.3290     0.9290   -10.0220 ha         1 U0C       0.117000
     55 H22        -43.1900    -0.3420   -11.9180 h1         1 U0C       0.042450
     56 H23        -42.1180    -0.2080   -13.3160 h1         1 U0C       0.042450
     57 H24        -42.5730    -2.5860   -12.8760 h1         1 U0C       0.063450
     58 H25        -42.1230    -2.4140   -11.1730 h1         1 U0C       0.063450
     59 H26        -38.4940    -1.8930   -11.9280 h1         1 U0C       0.063450
     60 H27        -39.6610    -1.9950   -10.6010 h1         1 U0C       0.063450
     61 H28        -39.0980     0.3530   -10.9530 h1         1 U0C       0.042450
     62 H29        -39.4310     0.2480   -12.6910 h1         1 U0C       0.042450
     63 H30        -39.7940     2.5530   -11.8830 ha         1 U0C       0.112000
     64 H31        -42.1840     9.1310    -6.3110 ha         1 U0C       0.132500
     65 H33        -40.2990    -2.1330   -13.4900 hn         1 U0C       0.401000
     66 C20        -38.0930     5.0030    -9.8360 c3         1 U0C       0.143100
@<TRIPOS>BOND
     1     1    31 1   
     2     1    34 1   
     3     1    35 1   
     4     1    36 1   
     5     2     3 ar  
     6     2    26 ar  
     7     2    31 1   
     8     3     5 ar  
     9     3    32 1   
    10     4    32 1   
    11     4    37 1   
    12     4    38 1   
    13     4    39 1   
    14     5     7 ar  
    15     5    33 1   
    16     6    33 1   
    17     6    40 1   
    18     6    41 1   
    19     6    42 1   
    20     7     8 ar  
    21     7    43 1   
    22     8     9 1   
    23     8    26 ar  
    24     9    10 ar  
    25     9    13 ar  
    26    10    27 ar  
    27    10    44 1   
    28    11    12 ar  
    29    11    27 ar  
    30    11    45 1   
    31    12    13 ar  
    32    12    17 1   
    33    13    14 1   
    34    14    28 1   
    35    14    46 1   
    36    14    47 1   
    37    15    16 1   
    38    15    28 1   
    39    15    51 1   
    40    15    52 1   
    41    16    17 ar  
    42    16    25 ar  
    43    17    18 ar  
    44    18    19 ar  
    45    18    53 1   
    46    19    20 ar  
    47    19    54 1   
    48    20    25 ar  
    49    20    29 1   
    50    21    22 1   
    51    21    29 1   
    52    21    55 1   
    53    21    56 1   
    54    22    30 1   
    55    22    57 1   
    56    22    58 1   
    57    23    24 1   
    58    23    30 1   
    59    23    59 1   
    60    23    60 1   
    61    24    29 1   
    62    24    61 1   
    63    24    62 1   
    64    25    63 1   
    65    26    64 1   
    66    28    66 1   
    67    30    65 1   
    68    48    66 1   
    69    49    66 1   
    70    50    66 1   
@<TRIPOS>SUBSTRUCTURE
     1 U0C         1 TEMP              0 ****  ****    0 ROOT
