@<TRIPOS>MOLECULE
U0C
   66    70     1     0     0
SMALL
abcg2


@<TRIPOS>ATOM
      1 C01        -41.6860    10.8890    -4.6550 c3         1 U0C       0.145900
      2 C03        -40.1850    10.2440    -6.4010 ca         1 U0C       0.151100
      3 C04        -38.9310    10.4090    -7.0010 ca         1 U0C       0.033100
      4 C06        -38.0970    12.6120    -6.9240 c3         1 U0C       0.148900
      5 C07        -38.6080     9.6670    -8.1440 ca         1 U0C       0.151100
      6 C09        -36.9900     9.1390    -9.8190 c3         1 U0C       0.145900
      7 C10        -39.5280     8.7650    -8.6760 ca         1 U0C      -0.210000
      8 C11        -40.7710     8.5950    -8.0670 cp         1 U0C       0.026000
      9 C12        -41.7580     7.6510    -8.6430 cp         1 U0C      -0.074000
     10 C13        -43.0790     8.0770    -8.8220 ca         1 U0C       0.339900
     11 C15        -43.7180     6.0920    -9.7440 ca         1 U0C       0.339900
     12 C16        -42.4380     5.5500    -9.6180 cp         1 U0C      -0.076000
     13 C17        -41.4360     6.3420    -9.0270 ca         1 U0C      -0.023300
     14 C18        -40.1030     5.7040    -8.7350 c3         1 U0C       0.195100
     15 C21        -39.9950     5.0710   -11.0910 c3         1 U0C       0.200100
     16 C22        -40.9480     3.9320   -10.8050 ca         1 U0C      -0.068300
     17 C23        -42.1370     4.1900   -10.1030 cp         1 U0C      -0.070000
     18 C24        -43.0180     3.1240    -9.8920 ca         1 U0C      -0.064000
     19 C25        -42.7320     1.8460   -10.3340 ca         1 U0C      -0.156000
     20 C26        -41.5360     1.5680   -11.0230 ca         1 U0C       0.310000
     21 C28        -42.2990    -0.5560   -11.9850 c6         1 U0C       0.163300
     22 C29        -41.9300    -2.0350   -11.9560 c6         1 U0C       0.140300
     23 C31        -39.6010    -1.4690   -12.0410 c6         1 U0C       0.140300
     24 C32        -39.9400     0.0210   -12.0610 c6         1 U0C       0.163300
     25 C33        -40.6650     2.6470   -11.2540 ca         1 U0C      -0.169000
     26 C34        -41.1010     9.3360    -6.9310 ca         1 U0C      -0.210000
     27 N14        -44.0440     7.3220    -9.3460 nb         1 U0C      -0.662000
     28 N19        -39.2490     5.5590    -9.9180 n3         1 U0C      -0.711600
     29 N27        -41.2250     0.2650   -11.4150 nh         1 U0C      -0.793400
     30 N30        -40.6470    -2.3270   -12.5970 n7         1 U0C      -0.838400
     31 O02        -40.4170    11.0040    -5.2990 os         1 U0C      -0.333100
     32 O05        -38.0060    11.2600    -6.4480 os         1 U0C      -0.336100
     33 O08        -37.3740     9.8890    -8.6660 os         1 U0C      -0.333100
     34 H1         -41.6590    11.5880    -3.8230 h1         1 U0C       0.043867
     35 H2         -42.4970    11.1580    -5.3360 h1         1 U0C       0.043867
     36 H3         -41.8450     9.8760    -4.2800 h1         1 U0C       0.043867
     37 H4         -37.3250    13.1770    -6.4040 h1         1 U0C       0.036033
     38 H5         -37.9210    12.6510    -8.0010 h1         1 U0C       0.036033
     39 H6         -39.0790    13.0330    -6.6950 h1         1 U0C       0.036033
     40 H7         -35.9750     9.4510   -10.0500 h1         1 U0C       0.043867
     41 H8         -37.0100     8.0670    -9.6150 h1         1 U0C       0.043867
     42 H9         -37.6450     9.3610   -10.6660 h1         1 U0C       0.043867
     43 H10        -39.2860     8.1900    -9.5560 ha         1 U0C       0.132500
     44 H11        -43.3550     9.0860    -8.5370 h4         1 U0C       0.023100
     45 H12        -44.5080     5.5040   -10.1990 h4         1 U0C       0.022100
     46 H13        -40.3120     4.7170    -8.2920 h1         1 U0C       0.055700
     47 H14        -39.5570     6.2820    -7.9920 h1         1 U0C       0.055700
     48 H15        -37.5450     5.1870    -8.7710 h1         1 U0C       0.035367
     49 H16        -38.3760     3.7070    -9.2870 h1         1 U0C       0.035367
     50 H17        -37.4360     4.6610   -10.4590 h1         1 U0C       0.035367
     51 H18        -39.2690     4.7740   -11.8460 h1         1 U0C       0.061700
     52 H19        -40.5630     5.9120   -11.4960 h1         1 U0C       0.061700
     53 H20        -43.9350     3.2940    -9.3410 ha         1 U0C       0.116000
     54 H21        -43.4300     1.0530   -10.1080 ha         1 U0C       0.117000
     55 H22        -43.2190    -0.4060   -11.4260 h1         1 U0C       0.042450
     56 H23        -42.4860    -0.2480   -13.0260 h1         1 U0C       0.042450
     57 H24        -42.7160    -2.6110   -12.4470 h1         1 U0C       0.063450
     58 H25        -41.8710    -2.3670   -10.9150 h1         1 U0C       0.063450
     59 H26        -38.6740    -1.6300   -12.5930 h1         1 U0C       0.063450
     60 H27        -39.4310    -1.7760   -11.0040 h1         1 U0C       0.063450
     61 H28        -39.1610     0.5610   -11.5250 h1         1 U0C       0.042450
     62 H29        -39.9470     0.3840   -13.1010 h1         1 U0C       0.042450
     63 H30        -39.7540     2.4990   -11.8150 ha         1 U0C       0.112000
     64 H31        -42.0590     9.1870    -6.4580 ha         1 U0C       0.132500
     65 H33        -40.7290    -2.1440   -13.5940 hn         1 U0C       0.401000
     66 C20        -38.0960     4.7280    -9.5940 c3         1 U0C       0.143100
@<TRIPOS>BOND
     1     1    31 1   
     2     1    34 1   
     3     1    35 1   
     4     1    36 1   
     5     2     3 ar  
     6     2    26 ar  
     7     2    31 1   
     8     3     5 ar  
     9     3    32 1   
    10     4    32 1   
    11     4    37 1   
    12     4    38 1   
    13     4    39 1   
    14     5     7 ar  
    15     5    33 1   
    16     6    33 1   
    17     6    40 1   
    18     6    41 1   
    19     6    42 1   
    20     7     8 ar  
    21     7    43 1   
    22     8     9 1   
    23     8    26 ar  
    24     9    10 ar  
    25     9    13 ar  
    26    10    27 ar  
    27    10    44 1   
    28    11    12 ar  
    29    11    27 ar  
    30    11    45 1   
    31    12    13 ar  
    32    12    17 1   
    33    13    14 1   
    34    14    28 1   
    35    14    46 1   
    36    14    47 1   
    37    15    16 1   
    38    15    28 1   
    39    15    51 1   
    40    15    52 1   
    41    16    17 ar  
    42    16    25 ar  
    43    17    18 ar  
    44    18    19 ar  
    45    18    53 1   
    46    19    20 ar  
    47    19    54 1   
    48    20    25 ar  
    49    20    29 1   
    50    21    22 1   
    51    21    29 1   
    52    21    55 1   
    53    21    56 1   
    54    22    30 1   
    55    22    57 1   
    56    22    58 1   
    57    23    24 1   
    58    23    30 1   
    59    23    59 1   
    60    23    60 1   
    61    24    29 1   
    62    24    61 1   
    63    24    62 1   
    64    25    63 1   
    65    26    64 1   
    66    28    66 1   
    67    30    65 1   
    68    48    66 1   
    69    49    66 1   
    70    50    66 1   
@<TRIPOS>SUBSTRUCTURE
     1 U0C         1 TEMP              0 ****  ****    0 ROOT
