@<TRIPOS>MOLECULE
U0D
   77    81     1     0     0
SMALL
No Charge or Current Charge


@<TRIPOS>ATOM
      1 N1          -0.5580   -11.4920   -20.2870 na         1 U0D      -0.128500
      2 N3          -1.4260    -6.3820   -20.9160 nb         1 U0D      -0.236000
      3 C4           1.8350    -9.1310   -15.3960 ca         1 U0D      -0.066500
      4 C5           1.1300    -9.9700   -16.2760 ca         1 U0D      -0.099000
      5 C6           1.2350    -9.7970   -17.6700 ca         1 U0D      -0.076500
      6 C7           0.5290   -10.7010   -18.5820 cc         1 U0D       0.312500
      7 C8          -0.2210   -10.2790   -19.6590 cd         1 U0D      -0.259500
      8 C10         -1.3530   -11.6720   -21.5390 c6         1 U0D       0.076300
      9 C13         -1.0750    -6.5620   -19.6290 ca         1 U0D       0.148900
     10 C15         -1.1980   -13.0700   -22.1910 c6         1 U0D      -0.087400
     11 C17         -3.6260   -11.4890   -22.6440 c6         1 U0D       0.166800
     12 C20         -3.0590    -8.2410   -24.8470 ca         1 U0D      -0.136000
     13 C21         -3.1880    -9.1620   -25.9050 ca         1 U0D      -0.057300
     14 C22         -2.1210   -10.0300   -26.2010 ca         1 U0D      -0.132000
     15 C24         -0.8220    -9.0650   -24.3920 ca         1 U0D      -0.136000
     16 C26         -5.7940   -12.8590   -24.4520 c3         1 U0D       0.184800
     17 C28         -6.2660   -13.9480   -22.2530 c3         1 U0D       0.165600
     18 C1           2.1060    -8.8080   -18.1690 ca         1 U0D      -0.099000
     19 C11         -0.6090    -8.8960   -20.0540 ca         1 U0D       0.249500
     20 C12         -0.6660    -7.8170   -19.1470 ca         1 U0D      -0.255000
     21 C14         -1.3370    -7.4620   -21.7070 ca         1 U0D       0.383900
     22 C16         -2.0080   -13.1360   -23.5070 c6         1 U0D       0.166800
     23 C18         -2.8580   -11.3980   -21.3070 c6         1 U0D      -0.087400
     24 C19         -1.8850    -8.1990   -24.0780 ca         1 U0D       0.302000
     25 C2           2.8120    -7.9680   -17.2920 ca         1 U0D      -0.066500
     26 C23         -0.9320    -9.9820   -25.4510 ca         1 U0D      -0.057300
     27 C27         -6.3880   -15.2750   -24.3270 c3         1 U0D       0.165600
     28 C3           2.6730    -8.1110   -15.8950 ca         1 U0D      -0.197300
     29 C31          0.2260   -10.9120   -25.7780 c3         1 U0D      -0.049300
     30 C9          -0.0750   -12.5330   -19.4950 cd         1 U0D       0.404400
     31 N2           0.5980   -12.0560   -18.4600 nc         1 U0D      -0.670000
     32 N4          -0.9480    -8.6920   -21.3390 nb         1 U0D      -0.254000
     33 N5          -3.4470   -12.8220   -23.2910 n3         1 U0D      -0.723600
     34 N6          -1.7950    -7.3060   -23.0070 nu         1 U0D      -0.932900
     35 N7          -6.5230   -13.9360   -23.7120 n3         1 U0D      -0.734600
     36 H1           1.7290    -9.2820   -14.3230 ha         1 U0D       0.129000
     37 H2           0.4910   -10.7530   -15.8740 ha         1 U0D       0.130000
     38 H3          -0.9760   -10.9570   -22.2800 h1         1 U0D       0.101700
     39 H4          -1.1500    -5.6980   -18.9710 h4         1 U0D       0.028100
     40 H5          -1.5570   -13.8580   -21.5160 hc         1 U0D       0.057700
     41 H6          -0.1400   -13.2780   -22.4010 hc         1 U0D       0.057700
     42 H7          -3.2750   -10.6910   -23.3150 h1         1 U0D       0.039700
     43 H8          -4.6880   -11.2940   -22.4390 h1         1 U0D       0.039700
     44 H9          -3.8840    -7.5770   -24.6060 ha         1 U0D       0.125500
     45 H10         -2.2170   -10.7440   -27.0170 ha         1 U0D       0.113000
     46 H11          0.0970    -9.0200   -23.8140 ha         1 U0D       0.125500
     47 H12         -6.0490   -11.8810   -24.0250 h1         1 U0D       0.047700
     48 H13         -6.1720   -12.8340   -25.4830 h1         1 U0D       0.047700
     49 H14         -6.9670   -14.6230   -21.7460 h1         1 U0D       0.029033
     50 H15         -5.2480   -14.2930   -22.0310 h1         1 U0D       0.029033
     51 H16         -6.3950   -12.9450   -21.8250 h1         1 U0D       0.029033
     52 H17          2.2350    -8.6900   -19.2430 ha         1 U0D       0.130000
     53 H18         -0.4480    -7.9370   -18.0920 ha         1 U0D       0.149000
     54 H19         -1.9000   -14.1440   -23.9340 h1         1 U0D       0.039700
     55 H20         -1.5730   -12.4340   -24.2320 h1         1 U0D       0.039700
     56 H21         -3.0130   -10.4050   -20.8660 hc         1 U0D       0.057700
     57 H22         -3.2700   -12.1230   -20.5930 hc         1 U0D       0.057700
     58 H23          3.4740    -7.2080   -17.7060 ha         1 U0D       0.129000
     59 H24         -4.0000   -13.9390   -25.0120 h1         1 U0D       0.033200
     60 H25         -3.9000   -12.2060   -25.2650 h1         1 U0D       0.033200
     61 H26         -7.0560   -15.9950   -23.8360 h1         1 U0D       0.029033
     62 H27         -6.6510   -15.2430   -25.3920 h1         1 U0D       0.029033
     63 H28         -5.3590   -15.6500   -24.2360 h1         1 U0D       0.029033
     64 H29         -5.1870    -9.9270   -26.2450 hc         1 U0D       0.044200
     65 H30         -4.9620    -8.2490   -26.7710 hc         1 U0D       0.044200
     66 H31         -4.2920    -9.5720   -27.7330 hc         1 U0D       0.044200
     67 H32          0.9730   -10.4010   -26.3970 hc         1 U0D       0.044200
     68 H33          0.7260   -11.2580   -24.8660 hc         1 U0D       0.044200
     69 H34         -0.1120   -11.8000   -26.3250 hc         1 U0D       0.044200
     70 H35         -0.2340   -13.5780   -19.7300 h5         1 U0D       0.061100
     71 H37         -2.3390    -6.4520   -23.1290 hn         1 U0D       0.511000
     72 C25         -4.2340   -12.9710   -24.5500 c3         1 U0D       0.132800
     73 C29          3.4510    -7.2000   -14.9370 c3         1 U0D       0.356300
     74 C30         -4.4770    -9.2310   -26.7080 c3         1 U0D      -0.049300
     75 F1           3.6620    -5.9690   -15.4560 f          1 U0D      -0.115333
     76 F2           4.6640    -7.7180   -14.6430 f          1 U0D      -0.115333
     77 F3           2.8040    -7.0170   -13.7630 f          1 U0D      -0.115333
@<TRIPOS>BOND
     1     1     7 1   
     2     1     8 1   
     3     1    30 1   
     4     2     9 ar  
     5     2    21 ar  
     6     3     4 ar  
     7     3    28 ar  
     8     3    36 1   
     9     4     5 ar  
    10     4    37 1   
    11     5     6 1   
    12     5    18 ar  
    13     6     7 2   
    14     6    31 1   
    15     7    19 1   
    16     8    10 1   
    17     8    23 1   
    18     8    38 1   
    19     9    20 ar  
    20     9    39 1   
    21    10    22 1   
    22    10    40 1   
    23    10    41 1   
    24    11    23 1   
    25    11    33 1   
    26    11    42 1   
    27    11    43 1   
    28    12    13 ar  
    29    12    24 ar  
    30    12    44 1   
    31    13    14 ar  
    32    13    74 1   
    33    14    26 ar  
    34    14    45 1   
    35    15    24 ar  
    36    15    26 ar  
    37    15    46 1   
    38    16    35 1   
    39    16    47 1   
    40    16    48 1   
    41    16    72 1   
    42    17    35 1   
    43    17    49 1   
    44    17    50 1   
    45    17    51 1   
    46    18    25 ar  
    47    18    52 1   
    48    19    20 ar  
    49    19    32 ar  
    50    20    53 1   
    51    21    32 ar  
    52    21    34 1   
    53    22    33 1   
    54    22    54 1   
    55    22    55 1   
    56    23    56 1   
    57    23    57 1   
    58    24    34 1   
    59    25    28 ar  
    60    25    58 1   
    61    26    29 1   
    62    27    35 1   
    63    27    61 1   
    64    27    62 1   
    65    27    63 1   
    66    28    73 1   
    67    29    67 1   
    68    29    68 1   
    69    29    69 1   
    70    30    31 2   
    71    30    70 1   
    72    33    72 1   
    73    34    71 1   
    74    59    72 1   
    75    60    72 1   
    76    64    74 1   
    77    65    74 1   
    78    66    74 1   
    79    73    75 1   
    80    73    76 1   
    81    73    77 1   
@<TRIPOS>SUBSTRUCTURE
     1 U0D         1 TEMP              0 ****  ****    0 ROOT
