@<TRIPOS>MOLECULE
U0D
   77    81     1     0     0
SMALL
bcc


@<TRIPOS>ATOM
      1 N1          -0.6360   -11.3860   -20.5110 na         1 U0D      -0.149900
      2 N3          -1.7090    -6.4560   -21.0200 nb         1 U0D      -0.762000
      3 C4           1.9800    -9.5280   -15.5240 ca         1 U0D      -0.084500
      4 C5           1.2840   -10.2560   -16.4760 ca         1 U0D      -0.117000
      5 C6           1.2100    -9.8190   -17.7970 ca         1 U0D      -0.076500
      6 C7           0.4910   -10.6240   -18.7890 cc         1 U0D       0.377800
      7 C8          -0.2930   -10.2220   -19.8550 cd         1 U0D      -0.274100
      8 C10         -1.4940   -11.5340   -21.6920 c6         1 U0D       0.047000
      9 C13         -1.5220    -6.7150   -19.7360 ca         1 U0D       0.477200
     10 C15         -1.3680   -12.9110   -22.3280 c6         1 U0D      -0.087400
     11 C17         -3.7940   -11.3960   -22.6320 c6         1 U0D       0.166800
     12 C20         -2.7750    -8.1810   -25.0860 ca         1 U0D      -0.154000
     13 C21         -2.8210    -9.0870   -26.1370 ca         1 U0D      -0.057300
     14 C22         -1.7600    -9.9750   -26.3030 ca         1 U0D      -0.150000
     15 C24         -0.6270    -9.0330   -24.4090 ca         1 U0D      -0.154000
     16 C26         -5.9890   -12.9820   -24.1010 c3         1 U0D       0.184800
     17 C28         -6.2340   -13.8670   -21.8300 c3         1 U0D       0.165600
     18 C1           1.8750    -8.6450   -18.1510 ca         1 U0D      -0.117000
     19 C11         -0.7710    -8.8930   -20.2260 ca         1 U0D       0.577800
     20 C12         -1.0720    -7.9350   -19.2610 ca         1 U0D      -0.403600
     21 C14         -1.4290    -7.4560   -21.8610 ca         1 U0D       0.909900
     22 C16         -2.2540   -12.9730   -23.5640 c6         1 U0D       0.166800
     23 C18         -2.9580   -11.2670   -21.3690 c6         1 U0D      -0.087400
     24 C19         -1.6870    -8.1550   -24.2130 ca         1 U0D       0.163600
     25 C2           2.5690    -7.9130   -17.2050 ca         1 U0D      -0.084500
     26 C23         -0.6630    -9.9560   -25.4500 ca         1 U0D      -0.057300
     27 C27         -6.0080   -15.3680   -23.6870 c3         1 U0D       0.165600
     28 C3           2.6190    -8.3500   -15.8850 ca         1 U0D      -0.197300
     29 C31          0.4860   -10.9020   -25.6530 c3         1 U0D      -0.049300
     30 C9          -0.0870   -12.3960   -19.8100 cd         1 U0D       0.404400
     31 N2           0.5980   -11.9780   -18.7760 nc         1 U0D      -0.670000
     32 N4          -0.9370    -8.6390   -21.5180 nb         1 U0D      -0.780000
     33 N5          -3.6400   -12.7010   -23.2420 n3         1 U0D      -0.723600
     34 N6          -1.6930    -7.2120   -23.1740 nu         1 U0D      -0.739300
     35 N7          -6.4380   -14.0630   -23.2480 n3         1 U0D      -0.734600
     36 H1           2.0090    -9.8910   -14.5060 ha         1 U0D       0.147000
     37 H2           0.7870   -11.1720   -16.1840 ha         1 U0D       0.148000
     38 H3          -1.1580   -10.7940   -22.4170 h1         1 U0D       0.101700
     39 H4          -1.7600    -5.9150   -19.0430 h4         1 U0D       0.028100
     40 H5          -1.6840   -13.6950   -21.6350 hc         1 U0D       0.057700
     41 H6          -0.3340   -13.1140   -22.6160 hc         1 U0D       0.057700
     42 H7          -3.5250   -10.5860   -23.3360 h1         1 U0D       0.039700
     43 H8          -4.8410   -11.2380   -22.3690 h1         1 U0D       0.039700
     44 H9          -3.5990    -7.4950   -24.9280 ha         1 U0D       0.143500
     45 H10         -1.7970   -10.6980   -27.1120 ha         1 U0D       0.131000
     46 H11          0.2270    -9.0100   -23.7480 ha         1 U0D       0.143500
     47 H12         -6.3640   -12.0430   -23.6830 h1         1 U0D       0.047700
     48 H13         -6.4830   -13.0900   -25.0730 h1         1 U0D       0.047700
     49 H14         -6.8110   -14.6090   -21.2730 h1         1 U0D       0.029033
     50 H15         -5.1870   -13.9420   -21.5130 h1         1 U0D       0.029033
     51 H16         -6.6020   -12.8820   -21.5350 h1         1 U0D       0.029033
     52 H17          1.8690    -8.3040   -19.1770 ha         1 U0D       0.148000
     53 H18         -0.9780    -8.1230   -18.2030 ha         1 U0D       0.167000
     54 H19         -2.1860   -13.9760   -23.9930 h1         1 U0D       0.039700
     55 H20         -1.8650   -12.2770   -24.3280 h1         1 U0D       0.039700
     56 H21         -3.0970   -10.2660   -20.9600 hc         1 U0D       0.057700
     57 H22         -3.3050   -11.9810   -20.6160 hc         1 U0D       0.057700
     58 H23          3.0750    -7.0070   -17.5120 ha         1 U0D       0.147000
     59 H24         -4.1760   -13.7950   -24.9050 h1         1 U0D       0.033200
     60 H25         -4.3550   -12.0640   -25.1360 h1         1 U0D       0.033200
     61 H26         -6.5590   -16.1420   -23.1480 h1         1 U0D       0.029033
     62 H27         -6.2180   -15.4950   -24.7510 h1         1 U0D       0.029033
     63 H28         -4.9360   -15.5630   -23.5330 h1         1 U0D       0.029033
     64 H29         -4.6330   -10.0150   -26.8200 hc         1 U0D       0.044200
     65 H30         -4.6380    -8.2620   -26.9550 hc         1 U0D       0.044200
     66 H31         -3.7090    -9.2370   -28.0930 hc         1 U0D       0.044200
     67 H32          1.3080   -10.4150   -26.1820 hc         1 U0D       0.044200
     68 H33          0.8810   -11.2600   -24.7020 hc         1 U0D       0.044200
     69 H34          0.1880   -11.7690   -26.2410 hc         1 U0D       0.044200
     70 H35         -0.2020   -13.4290   -20.0910 h5         1 U0D       0.061100
     71 H37         -2.2250    -6.3700   -23.3360 hn         1 U0D       0.455800
     72 C25         -4.4930   -12.8780   -24.4000 c3         1 U0D       0.132800
     73 C29          3.4130    -7.5690   -14.8870 c3         1 U0D       0.720200
     74 C30         -4.0110    -9.1470   -27.0490 c3         1 U0D      -0.049300
     75 F1           3.2490    -6.2470   -15.0390 f          1 U0D      -0.236633
     76 F2           4.7300    -7.8030   -15.0100 f          1 U0D      -0.236633
     77 F3           3.0860    -7.8620   -13.6250 f          1 U0D      -0.236633
@<TRIPOS>BOND
     1     1     7 1   
     2     1     8 1   
     3     1    30 1   
     4     2     9 ar  
     5     2    21 ar  
     6     3     4 ar  
     7     3    28 ar  
     8     3    36 1   
     9     4     5 ar  
    10     4    37 1   
    11     5     6 1   
    12     5    18 ar  
    13     6     7 2   
    14     6    31 1   
    15     7    19 1   
    16     8    10 1   
    17     8    23 1   
    18     8    38 1   
    19     9    20 ar  
    20     9    39 1   
    21    10    22 1   
    22    10    40 1   
    23    10    41 1   
    24    11    23 1   
    25    11    33 1   
    26    11    42 1   
    27    11    43 1   
    28    12    13 ar  
    29    12    24 ar  
    30    12    44 1   
    31    13    14 ar  
    32    13    74 1   
    33    14    26 ar  
    34    14    45 1   
    35    15    24 ar  
    36    15    26 ar  
    37    15    46 1   
    38    16    35 1   
    39    16    47 1   
    40    16    48 1   
    41    16    72 1   
    42    17    35 1   
    43    17    49 1   
    44    17    50 1   
    45    17    51 1   
    46    18    25 ar  
    47    18    52 1   
    48    19    20 ar  
    49    19    32 ar  
    50    20    53 1   
    51    21    32 ar  
    52    21    34 1   
    53    22    33 1   
    54    22    54 1   
    55    22    55 1   
    56    23    56 1   
    57    23    57 1   
    58    24    34 1   
    59    25    28 ar  
    60    25    58 1   
    61    26    29 1   
    62    27    35 1   
    63    27    61 1   
    64    27    62 1   
    65    27    63 1   
    66    28    73 1   
    67    29    67 1   
    68    29    68 1   
    69    29    69 1   
    70    30    31 2   
    71    30    70 1   
    72    33    72 1   
    73    34    71 1   
    74    59    72 1   
    75    60    72 1   
    76    64    74 1   
    77    65    74 1   
    78    66    74 1   
    79    73    75 1   
    80    73    76 1   
    81    73    77 1   
@<TRIPOS>SUBSTRUCTURE
     1 U0D         1 TEMP              0 ****  ****    0 ROOT
