@<TRIPOS>MOLECULE
U0E
   94    94     1     0     0
SMALL
bcc


@<TRIPOS>ATOM
      1 C1          46.4320    21.4360    67.8360 c3         1 U0E      -0.180100
      2 C2          45.5090    21.3530    66.6440 c          1 U0E       0.667100
      3 C3          44.7900    19.8870    64.7750 c3         1 U0E       0.116700
      4 C4          45.7040    19.3600    63.6560 c3         1 U0E      -0.075400
      5 C5          46.2230    20.4170    62.6750 c6         1 U0E      -0.059700
      6 C6          45.1080    20.9530    61.7750 c6         1 U0E      -0.074400
      7 C7          45.6360    21.9450    60.7440 c6         1 U0E      -0.072400
      8 C8          46.3900    23.0880    61.4130 c6         1 U0E      -0.075400
      9 C9          47.5100    22.5560    62.3020 c6         1 U0E      -0.072400
     10 C10         46.9710    21.5730    63.3380 c6         1 U0E      -0.074400
     11 C11         43.6500    18.9130    65.0920 c3         1 U0E       0.130100
     12 C12         42.6850    19.4840    66.1280 c3         1 U0E      -0.097400
     13 C13         41.4610    18.6100    66.3920 c3         1 U0E      -0.133700
     14 C14         40.6470    19.0960    67.6200 c3         1 U0E      -0.048700
     15 C15         40.1650    20.5400    67.5240 c3         1 U0E      -0.094100
     16 C16         39.4770    18.1690    67.9400 c3         1 U0E      -0.094100
     17 C17         40.5810    18.5110    65.1590 c          1 U0E       0.665100
     18 C18         39.0960    16.9980    63.9190 c3         1 U0E       0.028700
     19 C19         39.6460    16.3270    62.6520 c3         1 U0E      -0.076400
     20 C20         40.3600    14.9960    62.8660 c3         1 U0E      -0.165400
     21 C21         39.5320    13.7790    63.2380 c          1 U0E       0.675100
     22 C22         38.0080    16.1660    64.5920 c          1 U0E       0.651100
     23 C23         35.6240    15.6000    64.5110 c3         1 U0E       0.024700
     24 C24         34.8580    15.0490    63.3100 c          1 U0E       0.661100
     25 C25         34.7130    16.5170    65.3410 c3         1 U0E      -0.082400
     26 C26         35.4150    17.0900    66.5640 c3         1 U0E      -0.112400
     27 C27         34.4960    17.9790    67.3950 c3         1 U0E       0.224800
     28 C28         35.4610    17.8580    69.6480 c2         1 U0E       0.788100
     29 N1          45.5670    20.1980    65.9590 ns         1 U0E      -0.565900
     30 N2          40.1230    17.2710    64.8910 ns         1 U0E      -0.567900
     31 N3          38.3530    13.6460    62.6060 nt         1 U0E      -0.681000
     32 N4          36.7940    16.2970    64.0430 ns         1 U0E      -0.558900
     33 N6          35.1490    18.5880    68.5310 nu         1 U0E      -0.842200
     34 N7          34.9620    16.6910    69.8330 n2         1 U0E      -0.893100
     35 N8          36.3500    18.4970    70.4890 nv         1 U0E      -0.958800
     36 O1          44.7790    22.2880    66.3390 o          1 U0E      -0.617100
     37 O2          44.2250    17.6910    65.5130 oh         1 U0E      -0.607800
     38 O3          40.2990    19.4830    64.4710 o          1 U0E      -0.605100
     39 O4          39.9530    12.9390    64.0200 o          1 U0E      -0.599100
     40 O5          38.2580    15.4410    65.5440 o          1 U0E      -0.594100
     41 O6          34.9620    15.5460    62.2000 o          1 U0E      -0.615100
     42 H11A        45.8500    21.6560    68.7310 hc         1 U0E       0.058700
     43 H12         47.0060    20.5290    68.0140 hc         1 U0E       0.058700
     44 H13A        47.1300    22.2620    67.6940 hc         1 U0E       0.058700
     45 H3          44.3160    20.8170    64.4560 h1         1 U0E       0.091700
     46 H41         46.5520    18.8310    64.1000 hc         1 U0E       0.047200
     47 H42         45.1640    18.6080    63.0730 hc         1 U0E       0.047200
     48 H5          46.9410    19.9040    62.0210 hc         1 U0E       0.043700
     49 H61         44.6080    20.1190    61.2730 hc         1 U0E       0.041950
     50 H62         44.3450    21.4480    62.3860 hc         1 U0E       0.041950
     51 H71         46.3100    21.4250    60.0540 hc         1 U0E       0.036450
     52 H72         44.8130    22.3330    60.1390 hc         1 U0E       0.036450
     53 H81         46.7930    23.7710    60.6610 hc         1 U0E       0.040700
     54 H82         45.6920    23.6720    62.0230 hc         1 U0E       0.040700
     55 H91         48.2590    22.0560    61.6790 hc         1 U0E       0.036450
     56 H92         48.0230    23.3820    62.8000 hc         1 U0E       0.036450
     57 H101        46.2970    22.1140    64.0100 hc         1 U0E       0.041950
     58 H102        47.7870    21.1890    63.9560 hc         1 U0E       0.041950
     59 H11         43.1080    18.7760    64.1440 h1         1 U0E       0.040700
     60 H121        43.2130    19.6240    67.0750 hc         1 U0E       0.071200
     61 H122        42.3660    20.4730    65.7960 hc         1 U0E       0.071200
     62 H13         41.8050    17.6030    66.6540 hc         1 U0E       0.050700
     63 H14         41.3490    19.0370    68.4590 hc         1 U0E       0.049700
     64 H151        39.6800    20.8290    68.4590 hc         1 U0E       0.040033
     65 H152        40.9820    21.2410    67.3540 hc         1 U0E       0.040033
     66 H153        39.4370    20.6720    66.7240 hc         1 U0E       0.040033
     67 H161        39.0350    18.4320    68.9020 hc         1 U0E       0.040033
     68 H162        38.6830    18.2400    67.1930 hc         1 U0E       0.040033
     69 H163        39.7900    17.1250    67.9950 hc         1 U0E       0.040033
     70 H18         38.6660    17.9540    63.6150 h1         1 U0E       0.088700
     71 H191        38.8450    16.2410    61.9150 hc         1 U0E       0.056200
     72 H192        40.3640    17.0240    62.2160 hc         1 U0E       0.056200
     73 H201        40.8820    14.7400    61.9380 hc         1 U0E       0.070200
     74 H202        41.1370    15.1070    63.6230 hc         1 U0E       0.070200
     75 H23         35.9570    14.7710    65.1370 h1         1 U0E       0.096700
     76 H251        34.3470    17.3290    64.7040 hc         1 U0E       0.049700
     77 H252        33.8340    15.9470    65.6550 hc         1 U0E       0.049700
     78 H261        35.7920    16.2790    67.1890 hc         1 U0E       0.057700
     79 H262        36.2800    17.6820    66.2520 hc         1 U0E       0.057700
     80 H271        34.1020    18.7850    66.7730 h1         1 U0E       0.057200
     81 H272        33.6380    17.4070    67.7490 h1         1 U0E       0.057200
     82 HN1         46.1940    19.4830    66.2910 hn         1 U0E       0.317500
     83 HN2         40.3460    16.5290    65.5370 hn         1 U0E       0.336500
     84 HN31        38.0050    14.3170    61.9440 hn         1 U0E       0.313000
     85 HN32        37.7740    12.8420    62.7870 hn         1 U0E       0.313000
     86 HN4         36.6710    16.9310    63.2680 hn         1 U0E       0.333500
     87 HN51        33.9990    13.6160    64.5110 hn         1 U0E       0.320500
     88 HN52        33.4550    13.6280    62.8790 hn         1 U0E       0.320500
     89 HN6         35.7960    19.3260    68.2990 hn         1 U0E       0.412800
     90 HN7         35.2350    16.3230    70.7370 hn         1 U0E       0.379400
     91 HN81        36.3820    18.1380    71.4300 hn         1 U0E       0.397300
     92 HN82        36.3350    19.5060    70.4760 hn         1 U0E       0.397300
     93 HO2         43.5930    16.9800    65.3740 ho         1 U0E       0.403000
     94 N5          34.0510    14.0190    63.5910 nt         1 U0E      -0.669000
@<TRIPOS>BOND
     1     1     2 1   
     2     1    42 1   
     3     1    43 1   
     4     1    44 1   
     5     2    29 1   
     6     2    36 2   
     7     3     4 1   
     8     3    11 1   
     9     3    29 1   
    10     3    45 1   
    11     4     5 1   
    12     4    46 1   
    13     4    47 1   
    14     5     6 1   
    15     5    10 1   
    16     5    48 1   
    17     6     7 1   
    18     6    49 1   
    19     6    50 1   
    20     7     8 1   
    21     7    51 1   
    22     7    52 1   
    23     8     9 1   
    24     8    53 1   
    25     8    54 1   
    26     9    10 1   
    27     9    55 1   
    28     9    56 1   
    29    10    57 1   
    30    10    58 1   
    31    11    12 1   
    32    11    37 1   
    33    11    59 1   
    34    12    13 1   
    35    12    60 1   
    36    12    61 1   
    37    13    14 1   
    38    13    17 1   
    39    13    62 1   
    40    14    15 1   
    41    14    16 1   
    42    14    63 1   
    43    15    64 1   
    44    15    65 1   
    45    15    66 1   
    46    16    67 1   
    47    16    68 1   
    48    16    69 1   
    49    17    30 1   
    50    17    38 2   
    51    18    19 1   
    52    18    22 1   
    53    18    30 1   
    54    18    70 1   
    55    19    20 1   
    56    19    71 1   
    57    19    72 1   
    58    20    21 1   
    59    20    73 1   
    60    20    74 1   
    61    21    31 1   
    62    21    39 2   
    63    22    32 1   
    64    22    40 2   
    65    23    24 1   
    66    23    25 1   
    67    23    32 1   
    68    23    75 1   
    69    24    41 2   
    70    24    94 1   
    71    25    26 1   
    72    25    76 1   
    73    25    77 1   
    74    26    27 1   
    75    26    78 1   
    76    26    79 1   
    77    27    33 1   
    78    27    80 1   
    79    27    81 1   
    80    28    33 1   
    81    28    34 2   
    82    28    35 1   
    83    29    82 1   
    84    30    83 1   
    85    31    84 1   
    86    31    85 1   
    87    32    86 1   
    88    33    89 1   
    89    34    90 1   
    90    35    91 1   
    91    35    92 1   
    92    37    93 1   
    93    87    94 1   
    94    88    94 1   
@<TRIPOS>SUBSTRUCTURE
     1 U0E         1 TEMP              0 ****  ****    0 ROOT
