@<TRIPOS>MOLECULE
U0E
   94    94     1     0     0
SMALL
No Charge or Current Charge


@<TRIPOS>ATOM
      1 C1          47.1630    20.4180    66.9840 c3         1 U0E      -0.180100
      2 C2          46.0720    20.8180    66.0010 c          1 U0E       0.600100
      3 C3          44.3000    19.8790    64.4660 c3         1 U0E       0.116700
      4 C4          44.5700    19.0680    63.1630 c3         1 U0E      -0.075400
      5 C5          45.7340    19.5280    62.2200 c6         1 U0E      -0.059700
      6 C6          45.6020    21.0100    61.7690 c6         1 U0E      -0.074400
      7 C7          46.6900    21.3790    60.7290 c6         1 U0E      -0.072400
      8 C8          48.1100    21.0870    61.2730 c6         1 U0E      -0.075400
      9 C9          48.2450    19.6130    61.7300 c6         1 U0E      -0.072400
     10 C10         47.1610    19.2530    62.7760 c6         1 U0E      -0.074400
     11 C11         42.9470    19.4750    65.1340 c3         1 U0E       0.153300
     12 C12         42.5300    20.4120    66.3000 c3         1 U0E      -0.097400
     13 C13         41.1420    20.0850    66.9310 c3         1 U0E      -0.133700
     14 C14         40.7990    20.9530    68.1870 c3         1 U0E      -0.048700
     15 C15         40.7760    22.4830    67.9370 c3         1 U0E      -0.094100
     16 C16         39.4850    20.4900    68.8620 c3         1 U0E      -0.094100
     17 C17         40.0130    20.0650    65.8690 c          1 U0E       0.598100
     18 C18         38.2960    18.5040    64.7950 c3         1 U0E       0.028700
     19 C19         38.5480    18.8020    63.2800 c3         1 U0E      -0.076400
     20 C20         39.9030    18.3470    62.6620 c3         1 U0E      -0.165400
     21 C21         40.3870    16.9690    63.1170 c          1 U0E       0.608100
     22 C22         37.8200    17.0440    65.0830 c          1 U0E       0.584100
     23 C23         36.2000    15.2240    64.3580 c3         1 U0E       0.024700
     24 C24         36.0300    14.6560    62.9150 c          1 U0E       0.594100
     25 C25         34.8740    15.1980    65.1700 c3         1 U0E      -0.082400
     26 C26         35.0100    15.6800    66.6350 c3         1 U0E      -0.112400
     27 C27         33.6880    15.5770    67.4250 c3         1 U0E       0.224800
     28 C28         34.4150    15.3740    69.7820 c2         1 U0E       0.788100
     29 N1          45.4110    19.7620    65.4200 ns         1 U0E      -0.498900
     30 N2          39.4430    18.8280    65.6750 ns         1 U0E      -0.500900
     31 N3          39.8370    15.9070    62.4950 nt         1 U0E      -0.614000
     32 N4          36.7770    16.5880    64.3030 ns         1 U0E      -0.491900
     33 N6          33.8540    16.0670    68.8030 nu         1 U0E      -0.897400
     34 N7          34.6370    14.1480    69.7620 n2         1 U0E      -0.893100
     35 N8          34.4080    16.1630    70.8230 nv         1 U0E      -1.069200
     36 O1          45.8090    21.9840    65.7500 o          1 U0E      -0.617100
     37 O2          43.0010    18.1170    65.6040 oh         1 U0E      -0.670000
     38 O3          39.6530    21.0540    65.2480 o          1 U0E      -0.605100
     39 O4          41.2070    16.8120    64.0050 o          1 U0E      -0.599100
     40 O5          38.3380    16.3360    65.9380 o          1 U0E      -0.594100
     41 O6          36.2840    15.2910    61.9020 o          1 U0E      -0.615100
     42 H11A        47.6700    21.2820    67.4270 hc         1 U0E       0.058700
     43 H12         46.7300    19.7650    67.7510 hc         1 U0E       0.058700
     44 H13A        47.8690    19.7490    66.4800 hc         1 U0E       0.058700
     45 H3          44.1950    20.9320    64.1750 h1         1 U0E       0.091700
     46 H41         44.7250    18.0150    63.4320 hc         1 U0E       0.047200
     47 H42         43.6450    19.0800    62.5740 hc         1 U0E       0.047200
     48 H5          45.6180    18.9030    61.3230 hc         1 U0E       0.043700
     49 H61         44.6070    21.1860    61.3380 hc         1 U0E       0.041950
     50 H62         45.6930    21.6800    62.6350 hc         1 U0E       0.041950
     51 H71         46.5240    20.8100    59.8030 hc         1 U0E       0.036450
     52 H72         46.6040    22.4410    60.4610 hc         1 U0E       0.036450
     53 H81         48.8580    21.3070    60.4990 hc         1 U0E       0.040700
     54 H82         48.3280    21.7570    62.1160 hc         1 U0E       0.040700
     55 H91         48.1590    18.9460    60.8610 hc         1 U0E       0.036450
     56 H92         49.2440    19.4450    62.1550 hc         1 U0E       0.036450
     57 H101        47.3460    19.8440    63.6810 hc         1 U0E       0.041950
     58 H102        47.2600    18.1970    63.0620 hc         1 U0E       0.041950
     59 H11         42.1750    19.5620    64.3620 h1         1 U0E       0.040700
     60 H121        43.2950    20.3750    67.0850 hc         1 U0E       0.071200
     61 H122        42.5220    21.4390    65.9170 hc         1 U0E       0.071200
     62 H13         41.2270    19.0610    67.3140 hc         1 U0E       0.050700
     63 H14         41.5980    20.7740    68.9180 hc         1 U0E       0.049700
     64 H151        40.5740    23.0180    68.8720 hc         1 U0E       0.040033
     65 H152        41.7410    22.8420    67.5600 hc         1 U0E       0.040033
     66 H153        39.9960    22.7620    67.2200 hc         1 U0E       0.040033
     67 H161        39.3290    21.0210    69.8080 hc         1 U0E       0.040033
     68 H162        38.6180    20.6840    68.2180 hc         1 U0E       0.040033
     69 H163        39.5170    19.4160    69.0820 hc         1 U0E       0.040033
     70 H18         37.4550    19.1370    65.1090 h1         1 U0E       0.088700
     71 H191        37.7320    18.3800    62.6810 hc         1 U0E       0.056200
     72 H192        38.4670    19.8860    63.1270 hc         1 U0E       0.056200
     73 H201        39.7360    18.3140    61.5790 hc         1 U0E       0.070200
     74 H202        40.6680    19.0930    62.8930 hc         1 U0E       0.070200
     75 H23         36.9150    14.5550    64.8540 h1         1 U0E       0.096700
     76 H251        34.1280    15.8170    64.6550 hc         1 U0E       0.049700
     77 H252        34.4770    14.1750    65.1810 hc         1 U0E       0.049700
     78 H261        35.7810    15.0840    67.1380 hc         1 U0E       0.057700
     79 H262        35.3490    16.7230    66.6480 hc         1 U0E       0.057700
     80 H271        32.9270    16.1830    66.9120 h1         1 U0E       0.057200
     81 H272        33.3300    14.5370    67.4230 h1         1 U0E       0.057200
     82 HN1         45.6750    18.8330    65.7240 hn         1 U0E       0.317500
     83 HN2         39.8280    18.0670    66.2260 hn         1 U0E       0.336500
     84 HN31        39.1420    16.0430    61.7760 hn         1 U0E       0.313000
     85 HN32        40.1210    14.9780    62.7660 hn         1 U0E       0.313000
     86 HN4         36.4160    17.2250    63.6010 hn         1 U0E       0.333500
     87 HN51        35.3630    12.8500    63.6350 hn         1 U0E       0.320500
     88 HN52        35.4480    12.9870    61.8900 hn         1 U0E       0.320500
     89 HN6         34.0410    17.0560    68.9000 hn         1 U0E       0.468000
     90 HN7         34.9690    13.8720    70.6910 hn         1 U0E       0.379400
     91 HN81        34.6100    15.6770    71.6860 hn         1 U0E       0.452500
     92 HN82        33.5570    16.7050    70.8630 hn         1 U0E       0.452500
     93 HO2         42.3890    17.5920    65.0260 ho         1 U0E       0.442000
     94 N5          35.5720    13.3890    62.8080 nt         1 U0E      -0.602000
@<TRIPOS>BOND
     1     1     2 1   
     2     1    42 1   
     3     1    43 1   
     4     1    44 1   
     5     2    29 1   
     6     2    36 2   
     7     3     4 1   
     8     3    11 1   
     9     3    29 1   
    10     3    45 1   
    11     4     5 1   
    12     4    46 1   
    13     4    47 1   
    14     5     6 1   
    15     5    10 1   
    16     5    48 1   
    17     6     7 1   
    18     6    49 1   
    19     6    50 1   
    20     7     8 1   
    21     7    51 1   
    22     7    52 1   
    23     8     9 1   
    24     8    53 1   
    25     8    54 1   
    26     9    10 1   
    27     9    55 1   
    28     9    56 1   
    29    10    57 1   
    30    10    58 1   
    31    11    12 1   
    32    11    37 1   
    33    11    59 1   
    34    12    13 1   
    35    12    60 1   
    36    12    61 1   
    37    13    14 1   
    38    13    17 1   
    39    13    62 1   
    40    14    15 1   
    41    14    16 1   
    42    14    63 1   
    43    15    64 1   
    44    15    65 1   
    45    15    66 1   
    46    16    67 1   
    47    16    68 1   
    48    16    69 1   
    49    17    30 1   
    50    17    38 2   
    51    18    19 1   
    52    18    22 1   
    53    18    30 1   
    54    18    70 1   
    55    19    20 1   
    56    19    71 1   
    57    19    72 1   
    58    20    21 1   
    59    20    73 1   
    60    20    74 1   
    61    21    31 1   
    62    21    39 2   
    63    22    32 1   
    64    22    40 2   
    65    23    24 1   
    66    23    25 1   
    67    23    32 1   
    68    23    75 1   
    69    24    41 2   
    70    24    94 1   
    71    25    26 1   
    72    25    76 1   
    73    25    77 1   
    74    26    27 1   
    75    26    78 1   
    76    26    79 1   
    77    27    33 1   
    78    27    80 1   
    79    27    81 1   
    80    28    33 1   
    81    28    34 2   
    82    28    35 1   
    83    29    82 1   
    84    30    83 1   
    85    31    84 1   
    86    31    85 1   
    87    32    86 1   
    88    33    89 1   
    89    34    90 1   
    90    35    91 1   
    91    35    92 1   
    92    37    93 1   
    93    87    94 1   
    94    88    94 1   
@<TRIPOS>SUBSTRUCTURE
     1 U0E         1 TEMP              0 ****  ****    0 ROOT
