@<TRIPOS>MOLECULE
U0G
   43    44     1     0     0
SMALL
bcc


@<TRIPOS>ATOM
      1 C10        152.3150   162.6670   152.9120 c3         1 U0G       0.125700
      2 C13        151.0090   158.9830   149.5700 c3         1 U0G      -0.022100
      3 C17        150.7500   161.4790   146.4600 ca         1 U0G      -0.219300
      4 C20        149.6760   161.2050   143.8870 ca         1 U0G      -0.089000
      5 C21        148.9300   160.8380   144.9930 ca         1 U0G      -0.164000
      6 C22        149.4590   160.9730   146.2770 ca         1 U0G       0.152100
      7 C01        153.4040   155.7440   150.6840 c3         1 U0G       0.123700
      8 C03        152.7540   157.9890   151.0990 ca         1 U0G       0.100100
      9 C04        153.6420   158.1140   152.1540 ca         1 U0G      -0.145000
     10 C05        153.7350   159.3240   152.8490 ca         1 U0G      -0.030000
     11 C06        154.6460   159.4460   153.9330 cg         1 U0G       0.252800
     12 C08        152.9430   160.4180   152.4960 ca         1 U0G       0.149100
     13 C11        152.0560   160.2730   151.4340 ca         1 U0G      -0.173000
     14 C12        151.9480   159.0810   150.7340 ca         1 U0G      -0.031300
     15 C14        151.7260   159.1800   148.2300 c3         1 U0G       0.160800
     16 C16        151.4330   161.5830   147.8100 c3         1 U0G       0.209100
     17 C18        151.4730   161.8480   145.3260 ca         1 U0G      -0.087000
     18 C19        150.9570   161.7190   144.0470 ca         1 U0G      -0.164000
     19 N07        155.3830   159.5300   154.8160 n1         1 U0G      -0.372800
     20 N15        152.3370   160.4900   148.1240 n7         1 U0G      -0.811200
     21 O09        153.1080   161.5340   153.2180 os         1 U0G      -0.306900
     22 O23        148.6570   160.5840   147.2950 oh         1 U0G      -0.502100
     23 H1         152.6060   163.4420   153.6150 h1         1 U0G       0.043367
     24 H2         152.4970   163.0270   151.8960 h1         1 U0G       0.043367
     25 H3         151.2490   162.4600   153.0320 h1         1 U0G       0.043367
     26 H4         150.2200   159.7290   149.6910 hc         1 U0G       0.048700
     27 H5         150.5060   158.0140   149.5530 hc         1 U0G       0.048700
     28 H6         149.2510   161.0920   142.8970 ha         1 U0G       0.134000
     29 H7         147.9290   160.4420   144.8730 ha         1 U0G       0.147000
     30 H8         153.1260   154.9600   149.9840 h1         1 U0G       0.041700
     31 H9         154.4700   155.9610   150.5650 h1         1 U0G       0.041700
     32 H10        153.2290   155.3840   151.7010 h1         1 U0G       0.041700
     33 H11        154.2740   157.2940   152.4650 ha         1 U0G       0.148000
     34 H12        151.4230   161.0970   151.1310 ha         1 U0G       0.139000
     35 H13        151.0130   158.9650   147.4210 h1         1 U0G       0.044700
     36 H14        152.5170   158.4350   148.1400 h1         1 U0G       0.044700
     37 H15        152.0150   162.5070   147.8300 h1         1 U0G       0.050200
     38 H16        150.7150   161.6970   148.6290 h1         1 U0G       0.050200
     39 H17        152.4720   162.2500   145.4580 ha         1 U0G       0.127000
     40 H18        151.5430   162.0140   143.1870 ha         1 U0G       0.136000
     41 H19        153.0720   160.4610   147.4300 hn         1 U0G       0.364800
     42 H21        149.0240   160.8350   148.1480 ho         1 U0G       0.426000
     43 O02        152.6010   156.8640   150.3730 os         1 U0G      -0.320900
@<TRIPOS>BOND
     1     1    21 1   
     2     1    23 1   
     3     1    24 1   
     4     1    25 1   
     5     2    14 1   
     6     2    15 1   
     7     2    26 1   
     8     2    27 1   
     9     3     6 ar  
    10     3    16 1   
    11     3    17 ar  
    12     4     5 ar  
    13     4    18 ar  
    14     4    28 1   
    15     5     6 ar  
    16     5    29 1   
    17     6    22 1   
    18     7    30 1   
    19     7    31 1   
    20     7    32 1   
    21     7    43 1   
    22     8     9 ar  
    23     8    14 ar  
    24     8    43 1   
    25     9    10 ar  
    26     9    33 1   
    27    10    11 1   
    28    10    12 ar  
    29    11    19 3   
    30    12    13 ar  
    31    12    21 1   
    32    13    14 ar  
    33    13    34 1   
    34    15    20 1   
    35    15    35 1   
    36    15    36 1   
    37    16    20 1   
    38    16    37 1   
    39    16    38 1   
    40    17    18 ar  
    41    17    39 1   
    42    18    40 1   
    43    20    41 1   
    44    22    42 1   
@<TRIPOS>SUBSTRUCTURE
     1 U0G         1 TEMP              0 ****  ****    0 ROOT
