@<TRIPOS>MOLECULE
U0G
   43    44     1     0     0
SMALL
No Charge or Current Charge


@<TRIPOS>ATOM
      1 C10        152.2380   162.7470   152.9870 c3         1 U0G       0.148900
      2 C13        151.0160   158.9600   149.5710 c3         1 U0G      -0.022100
      3 C17        150.7580   161.4690   146.4120 ca         1 U0G      -0.219300
      4 C20        149.6070   161.2860   143.8340 ca         1 U0G      -0.071000
      5 C21        148.8340   161.0120   144.9740 ca         1 U0G      -0.146000
      6 C22        149.4000   161.1020   146.2560 ca         1 U0G       0.152100
      7 C01        153.5180   155.6460   150.6850 c3         1 U0G       0.146900
      8 C03        152.8060   157.9780   151.1200 ca         1 U0G       0.100100
      9 C04        153.6890   158.1110   152.2140 ca         1 U0G      -0.127000
     10 C05        153.7560   159.3190   152.9370 ca         1 U0G      -0.030000
     11 C06        154.6660   159.4270   154.0460 cg         1 U0G       0.342000
     12 C08        152.9380   160.4080   152.5710 ca         1 U0G       0.149100
     13 C11        152.0530   160.2730   151.4790 ca         1 U0G      -0.155000
     14 C12        151.9840   159.0680   150.7510 ca         1 U0G      -0.031300
     15 C14        151.7100   159.1120   148.1950 c3         1 U0G       0.160800
     16 C16        151.4320   161.5920   147.7780 c3         1 U0G       0.209100
     17 C18        151.5240   161.7470   145.2600 ca         1 U0G      -0.069000
     18 C19        150.9530   161.6550   143.9800 ca         1 U0G      -0.146000
     19 N07        155.4100   159.4980   154.9440 n1         1 U0G      -0.462000
     20 N15        152.3330   160.4480   148.0130 n7         1 U0G      -0.866400
     21 O09        153.0260   161.5840   153.2980 os         1 U0G      -0.330100
     22 O23        148.6100   160.8280   147.3330 oh         1 U0G      -0.541100
     23 H1         152.4700   163.5610   153.6860 h1         1 U0G       0.043367
     24 H2         152.4500   163.1020   151.9710 h1         1 U0G       0.043367
     25 H3         151.1660   162.5260   153.0690 h1         1 U0G       0.043367
     26 H4         150.2120   159.6980   149.6650 hc         1 U0G       0.048700
     27 H5         150.5140   157.9850   149.5940 hc         1 U0G       0.048700
     28 H6         149.1630   161.2140   142.8430 ha         1 U0G       0.116000
     29 H7         147.7910   160.7280   144.8630 ha         1 U0G       0.129000
     30 H8         153.2860   154.8360   149.9830 h1         1 U0G       0.041700
     31 H9         154.5870   155.8770   150.5940 h1         1 U0G       0.041700
     32 H10        153.3200   155.2810   151.7010 h1         1 U0G       0.041700
     33 H11        154.3300   157.2860   152.5150 ha         1 U0G       0.130000
     34 H12        151.4170   161.0980   151.1750 ha         1 U0G       0.121000
     35 H13        150.9830   158.9080   147.3970 h1         1 U0G       0.044700
     36 H14        152.4840   158.3360   148.1220 h1         1 U0G       0.044700
     37 H15        152.0150   162.5230   147.7860 h1         1 U0G       0.050200
     38 H16        150.6920   161.6910   148.5820 h1         1 U0G       0.050200
     39 H17        152.5690   162.0380   145.3560 ha         1 U0G       0.109000
     40 H18        151.5540   161.8700   143.0990 ha         1 U0G       0.118000
     41 H19        152.9540   160.3930   147.1970 hn         1 U0G       0.420000
     42 H21        149.1560   160.9060   148.1390 ho         1 U0G       0.465000
     43 O02        152.7170   156.8040   150.3910 os         1 U0G      -0.344100
@<TRIPOS>BOND
     1     1    21 1   
     2     1    23 1   
     3     1    24 1   
     4     1    25 1   
     5     2    14 1   
     6     2    15 1   
     7     2    26 1   
     8     2    27 1   
     9     3     6 ar  
    10     3    16 1   
    11     3    17 ar  
    12     4     5 ar  
    13     4    18 ar  
    14     4    28 1   
    15     5     6 ar  
    16     5    29 1   
    17     6    22 1   
    18     7    30 1   
    19     7    31 1   
    20     7    32 1   
    21     7    43 1   
    22     8     9 ar  
    23     8    14 ar  
    24     8    43 1   
    25     9    10 ar  
    26     9    33 1   
    27    10    11 1   
    28    10    12 ar  
    29    11    19 3   
    30    12    13 ar  
    31    12    21 1   
    32    13    14 ar  
    33    13    34 1   
    34    15    20 1   
    35    15    35 1   
    36    15    36 1   
    37    16    20 1   
    38    16    37 1   
    39    16    38 1   
    40    17    18 ar  
    41    17    39 1   
    42    18    40 1   
    43    20    41 1   
    44    22    42 1   
@<TRIPOS>SUBSTRUCTURE
     1 U0G         1 TEMP              0 ****  ****    0 ROOT
