@<TRIPOS>MOLECULE
U0H
   52    53     1     0     0
SMALL
abcg2


@<TRIPOS>ATOM
      1 C10         73.5360    54.6360    32.8670 c3         1 U0H      -0.102433
      2 C20         76.2930    53.1790    42.2480 c3         1 U0H       0.147900
      3 C14         74.6820    53.7850    39.0450 ca         1 U0H      -0.049300
      4 C19         73.4110    53.0280    39.3010 c3         1 U0H      -0.042800
      5 C1          69.9000    54.8340    39.0350 ca         1 U0H       0.389900
      6 C11         72.7820    57.0380    33.0470 c3         1 U0H      -0.102433
      7 C12         74.0290    54.3230    36.6780 c          1 U0H       0.613700
      8 C13         74.9490    54.4500    37.8490 ca         1 U0H      -0.119600
      9 C15         75.6500    53.8560    40.0630 ca         1 U0H       0.133100
     10 C16         76.8240    54.5810    39.8860 ca         1 U0H      -0.180000
     11 C17         77.0520    55.2480    38.6900 ca         1 U0H      -0.082000
     12 C18         76.1210    55.1890    37.6720 ca         1 U0H      -0.128000
     13 C2          70.9890    56.1300    37.5150 ca         1 U0H       0.608300
     14 C3          71.0020    55.1000    36.5600 ca         1 U0H      -0.215600
     15 C4          70.3720    53.9180    36.8980 ca         1 U0H       0.004000
     16 C5          69.8130    53.7680    38.1640 ca         1 U0H      -0.212000
     17 C6          71.5520    58.3510    38.1090 c3         1 U0H       0.157900
     18 C7          71.5390    55.2690    35.1730 c          1 U0H       0.650700
     19 C8          73.5120    55.8880    33.7450 c3         1 U0H       0.151400
     20 C9          74.9520    56.3330    33.9980 c3         1 U0H      -0.102433
     21 N1          70.4670    55.9960    38.7140 nb         1 U0H      -0.763000
     22 N2          72.8520    55.6060    35.0570 n          1 U0H      -0.267400
     23 N3          73.6200    55.5190    36.1810 ns         1 U0H      -0.370500
     24 O2          70.8080    55.0880    34.2180 o          1 U0H      -0.581100
     25 O3          73.6910    53.2580    36.2020 o          1 U0H      -0.569100
     26 O4          75.3550    53.1850    41.1920 os         1 U0H      -0.339100
     27 H1          74.0540    53.8200    33.3700 hc         1 U0H       0.046589
     28 H2          72.5360    54.3020    32.6020 hc         1 U0H       0.046589
     29 H3          74.0710    54.8540    31.9420 hc         1 U0H       0.046589
     30 H4          75.8620    52.5720    43.0390 h1         1 U0H       0.041700
     31 H5          77.2460    52.7380    41.9450 h1         1 U0H       0.041700
     32 H6          76.4780    54.1840    42.6380 h1         1 U0H       0.041700
     33 H7          73.5780    51.9490    39.2890 hc         1 U0H       0.052033
     34 H8          73.0020    53.2760    40.2800 hc         1 U0H       0.052033
     35 H9          72.6430    53.2480    38.5660 hc         1 U0H       0.052033
     36 H10         69.4920    54.7630    40.0370 h4         1 U0H       0.020100
     37 H11         72.7450    57.9190    33.6910 hc         1 U0H       0.046589
     38 H12         73.3250    57.3090    32.1410 hc         1 U0H       0.046589
     39 H13         71.7680    56.7760    32.7580 hc         1 U0H       0.046589
     40 H14         77.5710    54.6390    40.6660 ha         1 U0H       0.119000
     41 H15         77.9680    55.8080    38.5590 ha         1 U0H       0.116000
     42 H16         76.3120    55.6940    36.7340 ha         1 U0H       0.119000
     43 H17         70.3320    53.1050    36.1840 ha         1 U0H       0.141000
     44 H18         69.3330    52.8470    38.4610 ha         1 U0H       0.132000
     45 H19         72.0430    59.1840    37.6130 h1         1 U0H       0.047700
     46 H20         70.5490    58.6510    38.4120 h1         1 U0H       0.047700
     47 H21         72.1200    58.0730    38.9970 h1         1 U0H       0.047700
     48 H22         75.0110    57.2090    34.6450 hc         1 U0H       0.046589
     49 H23         75.5680    55.5400    34.4240 hc         1 U0H       0.046589
     50 H24         75.3940    56.6030    33.0390 hc         1 U0H       0.046589
     51 H25         73.8570    56.3800    36.6530 hn         1 U0H       0.343500
     52 O1          71.5210    57.2980    37.1540 os         1 U0H      -0.465300
@<TRIPOS>BOND
     1     1    19 1   
     2     1    27 1   
     3     1    28 1   
     4     1    29 1   
     5     2    26 1   
     6     2    30 1   
     7     2    31 1   
     8     2    32 1   
     9     3     4 1   
    10     3     8 ar  
    11     3     9 ar  
    12     4    33 1   
    13     4    34 1   
    14     4    35 1   
    15     5    16 ar  
    16     5    21 ar  
    17     5    36 1   
    18     6    19 1   
    19     6    37 1   
    20     6    38 1   
    21     6    39 1   
    22     7     8 1   
    23     7    23 1   
    24     7    25 2   
    25     8    12 ar  
    26     9    10 ar  
    27     9    26 1   
    28    10    11 ar  
    29    10    40 1   
    30    11    12 ar  
    31    11    41 1   
    32    12    42 1   
    33    13    14 ar  
    34    13    21 ar  
    35    13    52 1   
    36    14    15 ar  
    37    14    18 1   
    38    15    16 ar  
    39    15    43 1   
    40    16    44 1   
    41    17    45 1   
    42    17    46 1   
    43    17    47 1   
    44    17    52 1   
    45    18    22 1   
    46    18    24 2   
    47    19    20 1   
    48    19    22 1   
    49    20    48 1   
    50    20    49 1   
    51    20    50 1   
    52    22    23 1   
    53    23    51 1   
@<TRIPOS>SUBSTRUCTURE
     1 U0H         1 TEMP              0 ****  ****    0 ROOT
