@<TRIPOS>MOLECULE
U0H
   52    53     1     0     0
SMALL
No Charge or Current Charge


@<TRIPOS>ATOM
      1 C10         73.3690    54.4590    32.7680 c3         1 U0H      -0.102433
      2 C20         76.1590    52.8680    42.4410 c3         1 U0H       0.147900
      3 C14         74.7410    53.5940    39.0340 ca         1 U0H      -0.049300
      4 C19         73.7240    52.4470    38.9480 c3         1 U0H      -0.042800
      5 C1          70.2180    55.0940    39.2470 ca         1 U0H       0.389900
      6 C11         72.6370    56.9170    32.7880 c3         1 U0H      -0.102433
      7 C12         74.0860    54.4230    36.6770 c          1 U0H       0.613700
      8 C13         74.8770    54.5360    37.9700 ca         1 U0H      -0.119600
      9 C15         75.5320    53.7370    40.2050 ca         1 U0H       0.133100
     10 C16         76.4330    54.8160    40.3220 ca         1 U0H      -0.180000
     11 C17         76.5520    55.7500    39.2870 ca         1 U0H      -0.082000
     12 C18         75.7860    55.6120    38.1240 ca         1 U0H      -0.128000
     13 C2          71.2070    56.2720    37.5100 ca         1 U0H       0.608300
     14 C3          71.0410    55.1900    36.6300 ca         1 U0H      -0.215600
     15 C4          70.3910    54.0310    37.0870 ca         1 U0H       0.004000
     16 C5          69.9820    53.9850    38.4260 ca         1 U0H      -0.212000
     17 C6          71.9560    58.5840    37.8880 c3         1 U0H       0.157900
     18 C7          71.4960    55.2670    35.2070 c          1 U0H       0.650700
     19 C8          73.4040    55.8000    33.5480 c3         1 U0H       0.151400
     20 C9          74.8970    56.2490    33.5890 c3         1 U0H      -0.102433
     21 N1          70.8090    56.2220    38.8010 nb         1 U0H      -0.763000
     22 N2          72.8590    55.6300    34.9390 n          1 U0H      -0.267400
     23 N3          73.7950    55.6350    36.0630 ns         1 U0H      -0.370500
     24 O2          70.6920    55.0210    34.3170 o          1 U0H      -0.581100
     25 O3          73.7640    53.3520    36.1780 o          1 U0H      -0.569100
     26 O4          75.4010    52.8030    41.2190 os         1 U0H      -0.339100
     27 H1          73.9040    53.6750    33.3170 hc         1 U0H       0.046589
     28 H2          72.3440    54.1130    32.5970 hc         1 U0H       0.046589
     29 H3          73.8430    54.5660    31.7850 hc         1 U0H       0.046589
     30 H4          75.8930    52.0290    43.0970 h1         1 U0H       0.041700
     31 H5          77.2350    52.8100    42.2360 h1         1 U0H       0.041700
     32 H6          75.9500    53.8000    42.9810 h1         1 U0H       0.041700
     33 H7          74.0960    51.6410    38.3050 hc         1 U0H       0.052033
     34 H8          73.4910    52.0060    39.9230 hc         1 U0H       0.052033
     35 H9          72.7670    52.7930    38.5420 hc         1 U0H       0.052033
     36 H10         69.9120    55.0870    40.2930 h4         1 U0H       0.020100
     37 H11         72.6380    57.8490    33.3660 hc         1 U0H       0.046589
     38 H12         73.1020    57.1200    31.8160 hc         1 U0H       0.046589
     39 H13         71.5960    56.6390    32.5940 hc         1 U0H       0.046589
     40 H14         77.0470    54.9500    41.2070 ha         1 U0H       0.119000
     41 H15         77.2510    56.5790    39.3820 ha         1 U0H       0.116000
     42 H16         75.9300    56.3400    37.3290 ha         1 U0H       0.119000
     43 H17         70.2260    53.1810    36.4260 ha         1 U0H       0.141000
     44 H18         69.4910    53.1040    38.8290 ha         1 U0H       0.132000
     45 H19         72.4080    59.4080    37.3230 h1         1 U0H       0.047700
     46 H20         71.0020    58.9380    38.3010 h1         1 U0H       0.047700
     47 H21         72.6270    58.3360    38.7220 h1         1 U0H       0.047700
     48 H22         75.0110    57.1890    34.1440 hc         1 U0H       0.046589
     49 H23         75.5310    55.4900    34.0630 hc         1 U0H       0.046589
     50 H24         75.2870    56.4130    32.5770 hc         1 U0H       0.046589
     51 H25         73.9860    56.5080    36.5430 hn         1 U0H       0.343500
     52 O1          71.7550    57.4410    37.0330 os         1 U0H      -0.465300
@<TRIPOS>BOND
     1     1    19 1   
     2     1    27 1   
     3     1    28 1   
     4     1    29 1   
     5     2    26 1   
     6     2    30 1   
     7     2    31 1   
     8     2    32 1   
     9     3     4 1   
    10     3     8 ar  
    11     3     9 ar  
    12     4    33 1   
    13     4    34 1   
    14     4    35 1   
    15     5    16 ar  
    16     5    21 ar  
    17     5    36 1   
    18     6    19 1   
    19     6    37 1   
    20     6    38 1   
    21     6    39 1   
    22     7     8 1   
    23     7    23 1   
    24     7    25 2   
    25     8    12 ar  
    26     9    10 ar  
    27     9    26 1   
    28    10    11 ar  
    29    10    40 1   
    30    11    12 ar  
    31    11    41 1   
    32    12    42 1   
    33    13    14 ar  
    34    13    21 ar  
    35    13    52 1   
    36    14    15 ar  
    37    14    18 1   
    38    15    16 ar  
    39    15    43 1   
    40    16    44 1   
    41    17    45 1   
    42    17    46 1   
    43    17    47 1   
    44    17    52 1   
    45    18    22 1   
    46    18    24 2   
    47    19    20 1   
    48    19    22 1   
    49    20    48 1   
    50    20    49 1   
    51    20    50 1   
    52    22    23 1   
    53    23    51 1   
@<TRIPOS>SUBSTRUCTURE
     1 U0H         1 TEMP              0 ****  ****    0 ROOT
