@<TRIPOS>MOLECULE
U0I
   53    55     1     0     0
SMALL
No Charge or Current Charge


@<TRIPOS>ATOM
      1 C02         15.1410    40.0100   -19.0610 c          1 U0I       0.552200
      2 C04         13.8260    39.4770   -17.1210 cc         1 U0I       0.474900
      3 C05         12.9880    38.3770   -16.5150 c3         1 U0I      -0.070400
      4 C06         12.0450    38.8460   -15.3960 ca         1 U0I      -0.019300
      5 C07         10.7190    39.3110   -15.6400 ca         1 U0I      -0.175300
      6 C08         10.1180    39.3700   -17.0610 c3         1 U0I       0.340300
      7 C12          9.9330    39.7250   -14.5370 ca         1 U0I      -0.065000
      8 C13         10.4440    39.6930   -13.2300 ca         1 U0I      -0.115000
      9 C14         11.7500    39.2450   -12.9990 ca         1 U0I      -0.081000
     10 C15         12.5420    38.8240   -14.0750 ca         1 U0I      -0.095000
     11 C17         14.8840    41.5820   -17.0940 cd         1 U0I      -0.066600
     12 C18         15.2240    42.8950   -16.4530 c          1 U0I       0.627300
     13 C20         14.8810    44.0910   -14.2610 c3         1 U0I       0.106000
     14 C21         16.0260    43.6840   -13.3110 c3         1 U0I      -0.057100
     15 C22         15.8010    42.3090   -12.6850 ca         1 U0I      -0.085300
     16 C23         16.5300    41.1940   -13.1430 ca         1 U0I      -0.094000
     17 C24         16.3080    39.9240   -12.5850 ca         1 U0I      -0.118000
     18 C25         15.3560    39.7630   -11.5680 ca         1 U0I       0.108100
     19 C27         14.6150    40.8680   -11.1020 ca         1 U0I       0.043100
     20 C29         12.8400    41.7050    -9.5970 c3         1 U0I       0.156900
     21 C30         14.8420    42.1440   -11.6670 ca         1 U0I      -0.147000
     22 C32         15.4150    41.2900   -18.3520 cc         1 U0I       0.087900
     23 F09         10.9150    40.0350   -17.9280 f          1 U0I      -0.113000
     24 F10          8.9190    39.9940   -17.1030 f          1 U0I      -0.113000
     25 F11          9.9200    38.1320   -17.5680 f          1 U0I      -0.113000
     26 N03         14.3390    39.1830   -18.3510 ns         1 U0I      -0.414400
     27 N16         14.0580    40.6160   -16.4700 nd         1 U0I      -0.610300
     28 N19         14.6040    43.0410   -15.2400 ns         1 U0I      -0.457900
     29 O01         15.5690    39.6880   -20.1620 o          1 U0I      -0.502000
     30 O26         15.1420    38.5310   -11.0210 oh         1 U0I      -0.538100
     31 O28         13.6820    40.6520   -10.1010 os         1 U0I      -0.381100
     32 O31         15.9690    43.7400   -16.9400 o          1 U0I      -0.660100
     33 O33         16.2270    42.1540   -19.0240 oh         1 U0I      -0.507100
     34 H1          12.4290    37.8570   -17.2990 hc         1 U0I       0.076700
     35 H2          13.6700    37.6170   -16.1160 hc         1 U0I       0.076700
     36 H3           8.9140    40.0780   -14.6790 ha         1 U0I       0.133000
     37 H4           9.8260    40.0180   -12.3960 ha         1 U0I       0.120000
     38 H5          12.1470    39.2230   -11.9870 ha         1 U0I       0.126000
     39 H6          13.5570    38.4840   -13.8810 ha         1 U0I       0.129000
     40 H7          15.1370    45.0250   -14.7780 h1         1 U0I       0.061700
     41 H8          13.9680    44.2660   -13.6770 h1         1 U0I       0.061700
     42 H9          16.9690    43.6990   -13.8720 hc         1 U0I       0.062200
     43 H10         16.1260    44.4460   -12.5290 hc         1 U0I       0.062200
     44 H11         17.2660    41.3090   -13.9370 ha         1 U0I       0.123000
     45 H12         16.8720    39.0660   -12.9420 ha         1 U0I       0.133000
     46 H13         12.1690    41.3170    -8.8200 h1         1 U0I       0.044700
     47 H14         13.4420    42.5090    -9.1540 h1         1 U0I       0.044700
     48 H15         12.2210    42.1280   -10.3990 h1         1 U0I       0.044700
     49 H16         14.2830    43.0130   -11.3290 ha         1 U0I       0.116000
     50 H18         14.0350    42.2480   -14.9650 hn         1 U0I       0.348500
     51 H19         14.4670    38.6560   -10.3180 ho         1 U0I       0.478000
     52 H20         16.3280    42.9430   -18.4260 ho         1 U0I       0.527000
     53 H17         14.1250    38.2950   -18.7800 hn         1 U0I       0.334500
@<TRIPOS>BOND
     1     1    22 1   
     2     1    26 1   
     3     1    29 2   
     4     2     3 1   
     5     2    26 1   
     6     2    27 2   
     7     3     4 1   
     8     3    34 1   
     9     3    35 1   
    10     4     5 ar  
    11     4    10 ar  
    12     5     6 1   
    13     5     7 ar  
    14     6    23 1   
    15     6    24 1   
    16     6    25 1   
    17     7     8 ar  
    18     7    36 1   
    19     8     9 ar  
    20     8    37 1   
    21     9    10 ar  
    22     9    38 1   
    23    10    39 1   
    24    11    12 1   
    25    11    22 2   
    26    11    27 1   
    27    12    28 1   
    28    12    32 2   
    29    13    14 1   
    30    13    28 1   
    31    13    40 1   
    32    13    41 1   
    33    14    15 1   
    34    14    42 1   
    35    14    43 1   
    36    15    16 ar  
    37    15    21 ar  
    38    16    17 ar  
    39    16    44 1   
    40    17    18 ar  
    41    17    45 1   
    42    18    19 ar  
    43    18    30 1   
    44    19    21 ar  
    45    19    31 1   
    46    20    31 1   
    47    20    46 1   
    48    20    47 1   
    49    20    48 1   
    50    21    49 1   
    51    22    33 1   
    52    26    53 1   
    53    28    50 1   
    54    30    51 1   
    55    33    52 1   
@<TRIPOS>SUBSTRUCTURE
     1 U0I         1 TEMP              0 ****  ****    0 ROOT
