@<TRIPOS>MOLECULE
U0I
   53    55     1     0     0
SMALL
abcg2


@<TRIPOS>ATOM
      1 C02         15.1960    40.0550   -19.0590 c          1 U0I       0.552200
      2 C04         13.8250    39.4980   -17.1210 cc         1 U0I       0.474900
      3 C05         12.9960    38.4150   -16.4800 c3         1 U0I      -0.070400
      4 C06         12.1310    38.9160   -15.3510 ca         1 U0I      -0.019300
      5 C07         10.8270    39.3990   -15.5370 ca         1 U0I      -0.175300
      6 C08         10.1940    39.3880   -16.9010 c3         1 U0I       0.340300
      7 C12         10.0880    39.8800   -14.4590 ca         1 U0I      -0.065000
      8 C13         10.6340    39.8890   -13.1830 ca         1 U0I      -0.115000
      9 C14         11.9210    39.4070   -12.9840 ca         1 U0I      -0.081000
     10 C15         12.6560    38.9280   -14.0610 ca         1 U0I      -0.095000
     11 C17         14.8780    41.5290   -17.1430 cd         1 U0I      -0.066600
     12 C18         15.1480    42.7960   -16.4130 c          1 U0I       0.627300
     13 C20         14.7640    43.9860   -14.2900 c3         1 U0I       0.106000
     14 C21         15.9340    43.6200   -13.3590 c3         1 U0I      -0.057100
     15 C22         15.7440    42.2740   -12.7090 ca         1 U0I      -0.085300
     16 C23         16.4370    41.1580   -13.1620 ca         1 U0I      -0.094000
     17 C24         16.2060    39.8980   -12.6110 ca         1 U0I      -0.118000
     18 C25         15.2740    39.7450   -11.6010 ca         1 U0I       0.108100
     19 C27         14.5660    40.8640   -11.1340 ca         1 U0I       0.043100
     20 C29         12.7940    41.6330    -9.7140 c3         1 U0I       0.156900
     21 C30         14.8000    42.1140   -11.6880 ca         1 U0I      -0.147000
     22 C32         15.4670    41.3080   -18.3610 cc         1 U0I       0.087900
     23 F09         10.9390    40.0460   -17.8240 f          1 U0I      -0.113000
     24 F10          8.9740    39.9590   -16.9200 f          1 U0I      -0.113000
     25 F11         10.0280    38.1270   -17.3830 f          1 U0I      -0.113000
     26 N03         14.3590    39.2140   -18.3450 ns         1 U0I      -0.414400
     27 N16         14.0590    40.6180   -16.5270 nd         1 U0I      -0.610300
     28 N19         14.4970    42.9380   -15.2590 ns         1 U0I      -0.457900
     29 O01         15.6410    39.7450   -20.1580 o          1 U0I      -0.502000
     30 O26         15.0350    38.5080   -11.0730 oh         1 U0I      -0.538100
     31 O28         13.6690    40.5900   -10.1430 os         1 U0I      -0.381100
     32 O31         15.9380    43.6440   -16.8810 o          1 U0I      -0.660100
     33 O33         16.2850    42.1690   -18.9740 oh         1 U0I      -0.507100
     34 H1          12.4130    37.9140   -17.2520 hc         1 U0I       0.076700
     35 H2          13.6900    37.6650   -16.0900 hc         1 U0I       0.076700
     36 H3           9.0840    40.2480   -14.6180 ha         1 U0I       0.133000
     37 H4          10.0540    40.2650   -12.3510 ha         1 U0I       0.120000
     38 H5          12.3510    39.4020   -11.9920 ha         1 U0I       0.126000
     39 H6          13.6620    38.5600   -13.9030 ha         1 U0I       0.129000
     40 H7          14.9820    44.9100   -14.8240 h1         1 U0I       0.061700
     41 H8          13.8540    44.1320   -13.7100 h1         1 U0I       0.061700
     42 H9          16.8590    43.6190   -13.9380 hc         1 U0I       0.062200
     43 H10         16.0180    44.4080   -12.6060 hc         1 U0I       0.062200
     44 H11         17.1610    41.2640   -13.9600 ha         1 U0I       0.123000
     45 H12         16.7400    39.0270   -12.9690 ha         1 U0I       0.133000
     46 H13         12.1380    41.1860    -8.9710 h1         1 U0I       0.044700
     47 H14         13.3570    42.4530    -9.2640 h1         1 U0I       0.044700
     48 H15         12.2040    42.0080   -10.5530 h1         1 U0I       0.044700
     49 H16         14.2470    42.9730   -11.3340 ha         1 U0I       0.116000
     50 H18         13.9470    42.1380   -14.9740 hn         1 U0I       0.348500
     51 H19         14.3500    38.5930   -10.3920 ho         1 U0I       0.478000
     52 H20         16.3650    42.9420   -18.3480 ho         1 U0I       0.527000
     53 H17         14.1410    38.3280   -18.7860 hn         1 U0I       0.334500
@<TRIPOS>BOND
     1     1    22 1   
     2     1    26 1   
     3     1    29 2   
     4     2     3 1   
     5     2    26 1   
     6     2    27 2   
     7     3     4 1   
     8     3    34 1   
     9     3    35 1   
    10     4     5 ar  
    11     4    10 ar  
    12     5     6 1   
    13     5     7 ar  
    14     6    23 1   
    15     6    24 1   
    16     6    25 1   
    17     7     8 ar  
    18     7    36 1   
    19     8     9 ar  
    20     8    37 1   
    21     9    10 ar  
    22     9    38 1   
    23    10    39 1   
    24    11    12 1   
    25    11    22 2   
    26    11    27 1   
    27    12    28 1   
    28    12    32 2   
    29    13    14 1   
    30    13    28 1   
    31    13    40 1   
    32    13    41 1   
    33    14    15 1   
    34    14    42 1   
    35    14    43 1   
    36    15    16 ar  
    37    15    21 ar  
    38    16    17 ar  
    39    16    44 1   
    40    17    18 ar  
    41    17    45 1   
    42    18    19 ar  
    43    18    30 1   
    44    19    21 ar  
    45    19    31 1   
    46    20    31 1   
    47    20    46 1   
    48    20    47 1   
    49    20    48 1   
    50    21    49 1   
    51    22    33 1   
    52    26    53 1   
    53    28    50 1   
    54    30    51 1   
    55    33    52 1   
@<TRIPOS>SUBSTRUCTURE
     1 U0I         1 TEMP              0 ****  ****    0 ROOT
