@<TRIPOS>MOLECULE
U0K
   58    62     1     0     0
SMALL
No Charge or Current Charge


@<TRIPOS>ATOM
      1 C1           4.3610    -5.8150    12.8530 c3         1 U0K      -0.098100
      2 N1           5.0300    -7.4440    14.6480 nh         1 U0K      -0.704400
      3 O1          -5.9900    -5.0170    21.1020 os         1 U0K      -0.451000
      4 C2           5.5100    -6.4510    13.6580 c5         1 U0K       0.239500
      5 N2           7.8650    -5.9240    16.9270 n1         1 U0K      -0.512000
      6 C3           6.4620    -7.3370    12.8130 c5         1 U0K      -0.089400
      7 N3           5.6860    -4.7920    19.6130 nv         1 U0K      -1.064900
      8 C4           7.1670    -8.1570    13.9250 c5         1 U0K      -0.097400
      9 N4           3.4280    -4.9190    19.8650 nb         1 U0K      -0.353000
     10 C5           5.9640    -8.5930    14.8040 c5         1 U0K       0.222800
     11 N5           1.1620    -5.0080    20.1860 nu         1 U0K      -0.912900
     12 C6           4.5850    -6.8950    15.8380 cc         1 U0K       0.249900
     13 N6          -2.3430    -5.2260    20.5000 na         1 U0K       0.131800
     14 C7           5.3010    -6.2760    16.8620 cd         1 U0K      -0.105900
     15 N7          -2.2360    -5.8480    19.2680 nc         1 U0K      -0.510800
     16 C8           6.7110    -6.0920    16.8740 ch         1 U0K       0.338700
     17 N8           2.0100    -5.9470    18.2050 nb         1 U0K      -0.284000
     18 C9           4.3530    -5.8520    17.8820 ca         1 U0K      -0.247800
     19 N9           3.2400    -6.8380    16.2320 na         1 U0K      -0.207400
     20 C10          4.4950    -5.1930    19.1070 ca         1 U0K       0.459900
     21 C11          2.2390    -5.3110    19.3720 ca         1 U0K       0.438900
     22 C12         -0.2060    -5.2050    20.0950 cd         1 U0K       0.198000
     23 C13         -1.1150    -4.8260    21.0400 cc         1 U0K      -0.191300
     24 C14         -0.9230    -4.1370    22.3710 c3         1 U0K      -0.022800
     25 C15         -0.9350    -5.8220    19.0390 cd         1 U0K       0.252900
     26 C16         -3.6610    -5.0550    21.1340 c5         1 U0K       0.064300
     27 C17         -4.1390    -6.2540    21.9990 c5         1 U0K      -0.132400
     28 C18         -5.6760    -6.0140    22.1030 c5         1 U0K       0.159600
     29 C19         -4.8800    -4.9470    20.1870 c5         1 U0K       0.159600
     30 C20          3.0990    -6.2140    17.4600 ca         1 U0K       0.194500
     31 C21          2.0690    -7.3360    15.4900 c3         1 U0K       0.061900
     32 H1           3.7040    -5.2280    13.5050 hc         1 U0K       0.047367
     33 H2           4.7520    -5.1440    12.0800 hc         1 U0K       0.047367
     34 H3           3.7500    -6.5800    12.3600 hc         1 U0K       0.047367
     35 H4           6.0750    -5.6440    14.1460 h1         1 U0K       0.053700
     36 H5           7.1620    -6.7440    12.2150 hc         1 U0K       0.057200
     37 H6           5.9080    -7.9880    12.1260 hc         1 U0K       0.057200
     38 H7           5.7200    -4.5220    20.5920 hn         1 U0K       0.495000
     39 H8           6.5410    -5.1640    19.2090 hn         1 U0K       0.495000
     40 H9           7.7260    -9.0130    13.5330 hc         1 U0K       0.056700
     41 H10          7.8720    -7.5370    14.4890 hc         1 U0K       0.056700
     42 H11          5.5030    -9.5110    14.4150 h1         1 U0K       0.047700
     43 H12          6.2610    -8.7810    15.8460 h1         1 U0K       0.047700
     44 H13          1.4490    -4.5310    21.0390 hn         1 U0K       0.512000
     45 H14         -1.2410    -3.0890    22.3150 hc         1 U0K       0.047367
     46 H15         -1.5090    -4.6280    23.1570 hc         1 U0K       0.047367
     47 H16          0.1270    -4.1530    22.6870 hc         1 U0K       0.047367
     48 H17         -0.5610    -6.2490    18.1190 h4         1 U0K       0.053100
     49 H18         -3.6300    -4.1470    21.7500 h1         1 U0K       0.074700
     50 H19         -3.6520    -6.2830    22.9800 hc         1 U0K       0.064700
     51 H20         -3.9320    -7.2110    21.5050 hc         1 U0K       0.064700
     52 H21         -5.9690    -5.6290    23.0890 h1         1 U0K       0.053200
     53 H22         -6.2460    -6.9310    21.9010 h1         1 U0K       0.053200
     54 H23         -4.9390    -5.7860    19.4810 h1         1 U0K       0.057700
     55 H24         -4.9070    -4.0020    19.6280 h1         1 U0K       0.057700
     56 H25          1.4670    -6.4870    15.1430 h1         1 U0K       0.057033
     57 H26          2.3930    -7.9250    14.6230 h1         1 U0K       0.057033
     58 H27          1.4590    -7.9710    16.1450 h1         1 U0K       0.057033
@<TRIPOS>BOND
     1     1     4 1   
     2     1    32 1   
     3     1    33 1   
     4     1    34 1   
     5     2     4 1   
     6     2    10 1   
     7     2    12 1   
     8     3    28 1   
     9     3    29 1   
    10     4     6 1   
    11     4    35 1   
    12     5    16 3   
    13     6     8 1   
    14     6    36 1   
    15     6    37 1   
    16     7    20 1   
    17     7    38 1   
    18     7    39 1   
    19     8    10 1   
    20     8    40 1   
    21     8    41 1   
    22     9    20 ar  
    23     9    21 ar  
    24    10    42 1   
    25    10    43 1   
    26    11    21 1   
    27    11    22 1   
    28    11    44 1   
    29    12    14 2   
    30    12    19 1   
    31    13    15 1   
    32    13    23 1   
    33    13    26 1   
    34    14    16 1   
    35    14    18 1   
    36    15    25 2   
    37    17    21 ar  
    38    17    30 ar  
    39    18    20 ar  
    40    18    30 ar  
    41    19    30 1   
    42    19    31 1   
    43    22    23 2   
    44    22    25 1   
    45    23    24 1   
    46    24    45 1   
    47    24    46 1   
    48    24    47 1   
    49    25    48 1   
    50    26    27 1   
    51    26    29 1   
    52    26    49 1   
    53    27    28 1   
    54    27    50 1   
    55    27    51 1   
    56    28    52 1   
    57    28    53 1   
    58    29    54 1   
    59    29    55 1   
    60    31    56 1   
    61    31    57 1   
    62    31    58 1   
@<TRIPOS>SUBSTRUCTURE
     1 U0K         1 TEMP              0 ****  ****    0 ROOT
