@<TRIPOS>MOLECULE
U0K
   58    62     1     0     0
SMALL
bcc


@<TRIPOS>ATOM
      1 C1           5.6110    -5.7990    13.3040 c3         1 U0K      -0.098100
      2 N1           4.6590    -7.3630    14.9770 nh         1 U0K      -0.704400
      3 O1          -4.9990    -6.4890    20.0360 os         1 U0K      -0.404600
      4 C2           5.7930    -7.0860    14.0860 c5         1 U0K       0.239500
      5 N2           7.6680    -5.2160    16.5590 n1         1 U0K      -0.422800
      6 C3           5.8360    -8.3380    13.2170 c5         1 U0K      -0.089400
      7 N3           5.5350    -3.4120    19.0070 nv         1 U0K      -0.954500
      8 C4           5.4130    -9.4400    14.1750 c5         1 U0K      -0.097400
      9 N4           3.3280    -3.7950    19.4800 nb         1 U0K      -0.879000
     10 C5           4.2820    -8.7860    14.9600 c5         1 U0K       0.222800
     11 N5           1.1350    -4.0430    20.0100 nu         1 U0K      -0.719300
     12 C6           4.3650    -6.5600    16.0260 cc         1 U0K       0.249900
     13 N6          -2.1950    -5.0680    20.5770 na         1 U0K       0.110400
     14 C7           5.1550    -5.6570    16.7370 cd         1 U0K      -0.105900
     15 N7          -2.1460    -5.3240    19.2750 nc         1 U0K      -0.510800
     16 C8           6.5320    -5.4390    16.6100 ch         1 U0K       0.249500
     17 N8           1.9630    -5.3480    18.2930 nb         1 U0K      -0.810000
     18 C9           4.3020    -5.0530    17.7300 ca         1 U0K      -0.378400
     19 N9           3.0940    -6.5230    16.5500 na         1 U0K      -0.178100
     20 C10          4.4010    -4.0880    18.7490 ca         1 U0K       0.788200
     21 C11          2.1750    -4.4240    19.2210 ca         1 U0K       0.964900
     22 C12         -0.1660    -4.5350    19.9760 cd         1 U0K      -0.005700
     23 C13         -1.0180    -4.6090    21.0640 cc         1 U0K      -0.140600
     24 C14         -0.7900    -4.2690    22.4920 c3         1 U0K      -0.022800
     25 C15         -0.9290    -4.9960    18.8870 cd         1 U0K       0.318200
     26 C16         -3.3790    -5.3750    21.3580 c5         1 U0K       0.035000
     27 C17         -3.4510    -6.8480    21.7630 c5         1 U0K      -0.132400
     28 C18         -4.1250    -7.4790    20.5530 c5         1 U0K       0.136400
     29 C19         -4.6720    -5.2160    20.5640 c5         1 U0K       0.136400
     30 C20          3.0500    -5.6250    17.5830 ca         1 U0K       0.522800
     31 C21          1.9220    -7.1550    15.9850 c3         1 U0K       0.032600
     32 H1           5.5530    -4.9250    13.9530 hc         1 U0K       0.047367
     33 H2           6.4570    -5.6520    12.6320 hc         1 U0K       0.047367
     34 H3           4.7010    -5.8410    12.7040 hc         1 U0K       0.047367
     35 H4           6.7280    -7.0390    14.6560 h1         1 U0K       0.053700
     36 H5           6.8250    -8.4910    12.7860 hc         1 U0K       0.057200
     37 H6           5.1210    -8.2500    12.3940 hc         1 U0K       0.057200
     38 H7           5.5740    -2.8420    19.8350 hn         1 U0K       0.439800
     39 H8           6.4160    -3.7150    18.6310 hn         1 U0K       0.439800
     40 H9           5.0870   -10.3500    13.6730 hc         1 U0K       0.056700
     41 H10          6.2380    -9.7000    14.8410 hc         1 U0K       0.056700
     42 H11          3.3280    -8.9380    14.4520 h1         1 U0K       0.047700
     43 H12          4.1900    -9.1810    15.9730 h1         1 U0K       0.047700
     44 H13          1.3600    -3.3570    20.7120 hn         1 U0K       0.456800
     45 H14         -1.3760    -3.4040    22.8100 hc         1 U0K       0.047367
     46 H15         -1.0440    -5.0990    23.1520 hc         1 U0K       0.047367
     47 H16          0.2590    -4.0320    22.6620 hc         1 U0K       0.047367
     48 H17         -0.6330    -5.1040    17.8570 h4         1 U0K       0.053100
     49 H18         -3.3710    -4.7130    22.2240 h1         1 U0K       0.074700
     50 H19         -4.0780    -6.9410    22.6510 hc         1 U0K       0.064700
     51 H20         -2.4770    -7.2790    21.9890 hc         1 U0K       0.064700
     52 H21         -4.7010    -8.3700    20.8140 h1         1 U0K       0.053200
     53 H22         -3.3850    -7.7670    19.8000 h1         1 U0K       0.053200
     54 H23         -4.5790    -4.4810    19.7620 h1         1 U0K       0.057700
     55 H24         -5.4630    -4.8770    21.2400 h1         1 U0K       0.057700
     56 H25          1.0420    -6.6420    16.3630 h1         1 U0K       0.057033
     57 H26          1.9390    -7.0680    14.9000 h1         1 U0K       0.057033
     58 H27          1.8530    -8.2070    16.2600 h1         1 U0K       0.057033
@<TRIPOS>BOND
     1     1     4 1   
     2     1    32 1   
     3     1    33 1   
     4     1    34 1   
     5     2     4 1   
     6     2    10 1   
     7     2    12 1   
     8     3    28 1   
     9     3    29 1   
    10     4     6 1   
    11     4    35 1   
    12     5    16 3   
    13     6     8 1   
    14     6    36 1   
    15     6    37 1   
    16     7    20 1   
    17     7    38 1   
    18     7    39 1   
    19     8    10 1   
    20     8    40 1   
    21     8    41 1   
    22     9    20 ar  
    23     9    21 ar  
    24    10    42 1   
    25    10    43 1   
    26    11    21 1   
    27    11    22 1   
    28    11    44 1   
    29    12    14 2   
    30    12    19 1   
    31    13    15 1   
    32    13    23 1   
    33    13    26 1   
    34    14    16 1   
    35    14    18 1   
    36    15    25 2   
    37    17    21 ar  
    38    17    30 ar  
    39    18    20 ar  
    40    18    30 ar  
    41    19    30 1   
    42    19    31 1   
    43    22    23 2   
    44    22    25 1   
    45    23    24 1   
    46    24    45 1   
    47    24    46 1   
    48    24    47 1   
    49    25    48 1   
    50    26    27 1   
    51    26    29 1   
    52    26    49 1   
    53    27    28 1   
    54    27    50 1   
    55    27    51 1   
    56    28    52 1   
    57    28    53 1   
    58    29    54 1   
    59    29    55 1   
    60    31    56 1   
    61    31    57 1   
    62    31    58 1   
@<TRIPOS>SUBSTRUCTURE
     1 U0K         1 TEMP              0 ****  ****    0 ROOT
