@<TRIPOS>MOLECULE
U0L
   48    50     1     0     0
SMALL
abcg2


@<TRIPOS>ATOM
      1 C12         20.2660    17.5610    -6.5930 cc         1 U0L      -0.285900
      2 C13         20.8020    16.1910    -6.6540 ce         1 U0L       0.696800
      3 C16         19.6760    18.2170    -5.5460 cd         1 U0L      -0.097000
      4 C18         18.1700    22.7190    -4.1330 ca         1 U0L      -0.081000
      5 C19         17.4190    22.2120    -3.0840 ca         1 U0L      -0.159000
      6 C24         17.3450    22.0450     3.1000 ca         1 U0L      -0.047000
      7 C25         18.6330    21.5530     2.9140 ca         1 U0L       0.043000
      8 C27         18.8380    20.5920     1.9370 ca         1 U0L       0.213000
      9 C01         13.9430    19.0060    -0.7120 c3         1 U0L      -0.096600
     10 C02         15.3740    19.0340    -0.1720 c3         1 U0L       0.111000
     11 C03         15.6430    17.8020     0.6810 c3         1 U0L      -0.096600
     12 C04         16.3290    19.1200    -1.3850 c          1 U0L       0.580100
     13 C06         17.2800    20.8280    -2.9360 ca         1 U0L      -0.026000
     14 C07         17.8940    19.9680    -3.8460 ca         1 U0L      -0.126000
     15 C08         18.6560    20.4820    -4.9020 ca         1 U0L       0.019000
     16 C09         19.2990    19.5600    -5.8540 cd         1 U0L      -0.066000
     17 C10         19.6180    19.8770    -7.1540 cc         1 U0L      -0.251000
     18 C17         18.7920    21.8670    -5.0360 ca         1 U0L      -0.123000
     19 C22         16.5230    20.6050     1.3450 ca         1 U0L       0.157100
     20 C23         16.2990    21.5740     2.3250 ca         1 U0L      -0.151000
     21 C29         17.8110    20.1110     1.1440 ca         1 U0L      -0.219000
     22 N14         21.5340    15.8590    -7.6620 n2         1 U0L      -0.847100
     23 N15         20.5040    15.3910    -5.5850 nv         1 U0L      -1.079200
     24 O20         16.8230    18.1120    -1.8720 o          1 U0L      -0.583100
     25 O21         15.4270    20.2510     0.6140 os         1 U0L      -0.371100
     26 S11         20.3650    18.5810    -7.9880 ss         1 U0L       0.316000
     27 CL26        19.9610    22.1200     3.8820 cl         1 U0L      -0.171000
     28 H161        19.5440    17.7760    -4.5690 ha         1 U0L       0.140000
     29 H181        18.2810    23.7910    -4.2400 ha         1 U0L       0.116000
     30 H191        16.9410    22.8770    -2.3750 ha         1 U0L       0.113000
     31 H241        17.1670    22.7940     3.8590 ha         1 U0L       0.136000
     32 H013        13.2450    18.9140     0.1190 hc         1 U0L       0.059367
     33 H011        13.7220    19.9190    -1.2640 hc         1 U0L       0.059367
     34 H012        13.8170    18.1510    -1.3760 hc         1 U0L       0.059367
     35 H033        14.9500    17.8030     1.5220 hc         1 U0L       0.059367
     36 H032        15.4720    16.9060     0.0880 hc         1 U0L       0.059367
     37 H031        16.6600    17.7660     1.0630 hc         1 U0L       0.059367
     38 H071        17.7640    18.9060    -3.7360 ha         1 U0L       0.145000
     39 H101        19.4300    20.8050    -7.6700 h4         1 U0L       0.150000
     40 H171        19.3950    22.2770    -5.8350 ha         1 U0L       0.118000
     41 H231        15.2960    21.9520     2.4700 ha         1 U0L       0.136000
     42 H291        18.0550    19.3710     0.3990 ha         1 U0L       0.150000
     43 H051        16.0410    21.1050    -1.3260 hn         1 U0L       0.166000
     44 H142        21.8200    14.8830    -7.6030 hn         1 U0L       0.375400
     45 H151        19.6920    15.6020    -5.0270 hn         1 U0L       0.469000
     46 H1          20.7250    14.4100    -5.6620 hn         1 U0L       0.469000
     47 N05         16.4980    20.3780    -1.8590 ns         1 U0L      -0.137000
     48 F28         20.0780    20.1020     1.7380 f          1 U0L      -0.159000
@<TRIPOS>BOND
     1     1     2 1   
     2     1     3 2   
     3     1    26 1   
     4     2    22 2   
     5     2    23 1   
     6     3    16 1   
     7     3    28 1   
     8     4     5 ar  
     9     4    18 ar  
    10     4    29 1   
    11     5    13 ar  
    12     5    30 1   
    13     6     7 ar  
    14     6    20 ar  
    15     6    31 1   
    16     7     8 ar  
    17     7    27 1   
    18     8    21 ar  
    19     8    48 1   
    20     9    10 1   
    21     9    32 1   
    22     9    33 1   
    23     9    34 1   
    24    10    11 1   
    25    10    12 1   
    26    10    25 1   
    27    11    35 1   
    28    11    36 1   
    29    11    37 1   
    30    12    24 2   
    31    12    47 1   
    32    13    14 ar  
    33    13    47 1   
    34    14    15 ar  
    35    14    38 1   
    36    15    16 1   
    37    15    18 ar  
    38    16    17 2   
    39    17    26 1   
    40    17    39 1   
    41    18    40 1   
    42    19    20 ar  
    43    19    21 ar  
    44    19    25 1   
    45    20    41 1   
    46    21    42 1   
    47    22    44 1   
    48    23    45 1   
    49    23    46 1   
    50    43    47 1   
@<TRIPOS>SUBSTRUCTURE
     1 U0L         1 TEMP              0 ****  ****    0 ROOT
