@<TRIPOS>MOLECULE
U0L
   48    50     1     0     0
SMALL
No Charge or Current Charge


@<TRIPOS>ATOM
      1 C12         20.1940    17.5220    -6.9040 cc         1 U0L      -0.285900
      2 C13         20.3140    16.1240    -7.2660 ce         1 U0L       0.696800
      3 C16         19.5300    18.1020    -5.8440 cd         1 U0L      -0.097000
      4 C18         18.6210    22.5920    -3.7400 ca         1 U0L      -0.081000
      5 C19         17.8170    22.0200    -2.7450 ca         1 U0L      -0.159000
      6 C24         16.7350    22.6820     2.7910 ca         1 U0L      -0.047000
      7 C25         18.1080    22.3920     2.7630 ca         1 U0L       0.043000
      8 C27         18.5710    21.2920     2.0160 ca         1 U0L       0.213000
      9 C01         14.1180    18.3910    -0.5490 c3         1 U0L      -0.096600
     10 C02         15.5240    18.7560    -0.0140 c3         1 U0L       0.111000
     11 C03         15.9510    17.7140     1.0610 c3         1 U0L      -0.096600
     12 C04         16.5100    18.8340    -1.2310 c          1 U0L       0.580100
     13 C06         17.6010    20.6330    -2.7160 ca         1 U0L      -0.026000
     14 C07         18.1950    19.8230    -3.7100 ca         1 U0L      -0.126000
     15 C08         19.0100    20.3810    -4.7230 ca         1 U0L       0.019000
     16 C09         19.6370    19.5280    -5.7680 cd         1 U0L      -0.066000
     17 C10         20.4160    20.0200    -6.7940 cc         1 U0L      -0.251000
     18 C17         19.2130    21.7800    -4.7190 ca         1 U0L      -0.123000
     19 C22         16.2880    20.7670     1.3370 ca         1 U0L       0.157100
     20 C23         15.8340    21.8710     2.0770 ca         1 U0L      -0.151000
     21 C29         17.6710    20.4820     1.3040 ca         1 U0L      -0.219000
     22 N14         21.2550    15.6900    -7.9900 n2         1 U0L      -0.847100
     23 N15         19.4880    15.2290    -6.7010 nv         1 U0L      -1.079200
     24 O20         17.0380    17.8310    -1.7030 o          1 U0L      -0.583100
     25 O21         15.3280    20.0380     0.6530 os         1 U0L      -0.371100
     26 S11         21.0240    18.7490    -7.8450 ss         1 U0L       0.316000
     27 Cl26        19.2310    23.4160     3.6580 cl         1 U0L      -0.171000
     28 H161        18.9790    17.5050    -5.1260 ha         1 U0L       0.140000
     29 H181        18.7870    23.6670    -3.7530 ha         1 U0L       0.116000
     30 H191        17.3650    22.6600    -1.9900 ha         1 U0L       0.113000
     31 H241        16.3690    23.5320     3.3620 ha         1 U0L       0.136000
     32 H013        13.3870    18.3460     0.2680 hc         1 U0L       0.059367
     33 H011        13.7720    19.1380    -1.2750 hc         1 U0L       0.059367
     34 H012        14.1310    17.4150    -1.0490 hc         1 U0L       0.059367
     35 H033        15.3050    17.7810     1.9440 hc         1 U0L       0.059367
     36 H032        15.8680    16.6960     0.6620 hc         1 U0L       0.059367
     37 H031        16.9870    17.8480     1.3860 hc         1 U0L       0.059367
     38 H071        18.0120    18.7580    -3.7050 ha         1 U0L       0.145000
     39 H101        20.6950    21.0370    -7.0240 h4         1 U0L       0.150000
     40 H171        19.8300    22.2570    -5.4730 ha         1 U0L       0.118000
     41 H231        14.7710    22.1000     2.0980 ha         1 U0L       0.136000
     42 H291        18.0790    19.6560     0.7350 ha         1 U0L       0.150000
     43 H051        16.2880    20.8410    -1.1550 hn         1 U0L       0.166000
     44 H142        21.3190    14.6780    -7.8390 hn         1 U0L       0.375400
     45 H151        18.6610    15.6370    -6.2830 hn         1 U0L       0.469000
     46 H1          19.3240    14.3830    -7.2330 hn         1 U0L       0.469000
     47 N05         16.7740    20.1240    -1.6790 ns         1 U0L      -0.137000
     48 F28         19.8920    21.0060     1.9730 f          1 U0L      -0.159000
@<TRIPOS>BOND
     1     1     2 1   
     2     1     3 2   
     3     1    26 1   
     4     2    22 2   
     5     2    23 1   
     6     3    16 1   
     7     3    28 1   
     8     4     5 ar  
     9     4    18 ar  
    10     4    29 1   
    11     5    13 ar  
    12     5    30 1   
    13     6     7 ar  
    14     6    20 ar  
    15     6    31 1   
    16     7     8 ar  
    17     7    27 1   
    18     8    21 ar  
    19     8    48 1   
    20     9    10 1   
    21     9    32 1   
    22     9    33 1   
    23     9    34 1   
    24    10    11 1   
    25    10    12 1   
    26    10    25 1   
    27    11    35 1   
    28    11    36 1   
    29    11    37 1   
    30    12    24 2   
    31    12    47 1   
    32    13    14 ar  
    33    13    47 1   
    34    14    15 ar  
    35    14    38 1   
    36    15    16 1   
    37    15    18 ar  
    38    16    17 2   
    39    17    26 1   
    40    17    39 1   
    41    18    40 1   
    42    19    20 ar  
    43    19    21 ar  
    44    19    25 1   
    45    20    41 1   
    46    21    42 1   
    47    22    44 1   
    48    23    45 1   
    49    23    46 1   
    50    43    47 1   
@<TRIPOS>SUBSTRUCTURE
     1 U0L         1 TEMP              0 ****  ****    0 ROOT
