@<TRIPOS>MOLECULE
U0N
   50    53     1     0     0
SMALL
bcc


@<TRIPOS>ATOM
      1 C1           5.3080    -5.4290    13.4300 c3         1 U0N      -0.097100
      2 N1           4.3940    -7.0990    15.0250 nh         1 U0N      -0.702400
      3 C2           5.5010    -6.7670    14.1190 c5         1 U0N       0.238500
      4 N2           7.4240    -4.9870    16.6030 n1         1 U0N      -0.420800
      5 C3           5.5020    -7.9550    13.1640 c5         1 U0N      -0.089400
      6 N3           5.3740    -3.3980    19.2590 nv         1 U0N      -0.953500
      7 C4           5.1190    -9.1210    14.0620 c5         1 U0N      -0.097400
      8 N4           3.1840    -3.8220    19.7760 nb         1 U0N      -0.876000
      9 C5           4.0300    -8.5230    14.9450 c5         1 U0N       0.221800
     10 N5           1.0300    -4.1790    20.3980 nu         1 U0N      -0.707300
     11 C6           4.1270    -6.3590    16.1250 cc         1 U0N       0.248900
     12 N6          -2.1200    -5.7840    20.0880 na         1 U0N       0.107400
     13 C7           4.9280    -5.4820    16.8560 cd         1 U0N      -0.103900
     14 N7          -2.3690    -4.9830    21.1110 nc         1 U0N      -0.513800
     15 C8           6.2960    -5.2340    16.6910 ch         1 U0N       0.248500
     16 N8           1.8020    -5.3390    18.5600 nb         1 U0N      -0.822000
     17 C9           4.1040    -4.9500    17.9130 ca         1 U0N      -0.380400
     18 N9           2.8760    -6.3770    16.6990 na         1 U0N      -0.181100
     19 C10          4.2270    -4.0420    18.9810 ca         1 U0N       0.790200
     20 C11          2.0380    -4.4700    19.5350 ca         1 U0N       0.964900
     21 C12         -0.2520    -4.7050    20.4140 cd         1 U0N      -0.011700
     22 C13         -0.8570    -5.6610    19.6250 cc         1 U0N      -0.150300
     23 C15         -1.2510    -4.3110    21.3330 cd         1 U0N       0.284600
     24 C16         -1.1340    -3.2940    22.4140 c3         1 U0N      -0.119400
     25 C17          2.8600    -5.5430    17.7850 ca         1 U0N       0.523800
     26 C18          1.6910    -6.9960    16.1480 c3         1 U0N       0.034600
     27 H1           5.2920    -4.5960    14.1330 hc         1 U0N       0.046700
     28 H2           6.1270    -5.2530    12.7330 hc         1 U0N       0.046700
     29 H3           4.3730    -5.4200    12.8680 hc         1 U0N       0.046700
     30 H4           6.4550    -6.7650    14.6600 h1         1 U0N       0.054700
     31 H5           6.4700    -8.0780    12.6790 hc         1 U0N       0.057700
     32 H6           4.7490    -7.8080    12.3850 hc         1 U0N       0.057700
     33 H7           5.3550    -2.6590    19.9420 hn         1 U0N       0.440300
     34 H8           6.1280    -3.3730    18.5950 hn         1 U0N       0.440300
     35 H9           4.7630    -9.9920    13.5130 hc         1 U0N       0.056700
     36 H10          5.9740    -9.4320    14.6660 hc         1 U0N       0.056700
     37 H11          3.0500    -8.6570    14.4820 h1         1 U0N       0.046700
     38 H12          3.9960    -8.9770    15.9370 h1         1 U0N       0.046700
     39 H13          1.2650    -3.5200    21.1230 hn         1 U0N       0.461800
     40 H14         -0.4930    -6.2400    18.7950 h4         1 U0N       0.192000
     41 H15         -4.0100    -6.1070    19.2540 h1         1 U0N       0.053367
     42 H16         -2.7400    -7.2280    18.7470 h1         1 U0N       0.053367
     43 H17         -3.4490    -7.3750    20.3600 h1         1 U0N       0.053367
     44 H18         -2.0800    -3.1860    22.9420 hc         1 U0N       0.046367
     45 H19         -0.3730    -3.5680    23.1480 hc         1 U0N       0.046367
     46 H20         -0.8610    -2.3150    22.0170 hc         1 U0N       0.046367
     47 H21          0.8210    -6.5170    16.5870 h1         1 U0N       0.054367
     48 H22          1.6620    -6.8520    15.0700 h1         1 U0N       0.054367
     49 H23          1.6470    -8.0610    16.3690 h1         1 U0N       0.054367
     50 C14         -3.1400    -6.6710    19.5890 c3         1 U0N       0.050600
@<TRIPOS>BOND
     1     1     3 1   
     2     1    27 1   
     3     1    28 1   
     4     1    29 1   
     5     2     3 1   
     6     2     9 1   
     7     2    11 1   
     8     3     5 1   
     9     3    30 1   
    10     4    15 3   
    11     5     7 1   
    12     5    31 1   
    13     5    32 1   
    14     6    19 1   
    15     6    33 1   
    16     6    34 1   
    17     7     9 1   
    18     7    35 1   
    19     7    36 1   
    20     8    19 ar  
    21     8    20 ar  
    22     9    37 1   
    23     9    38 1   
    24    10    20 1   
    25    10    21 1   
    26    10    39 1   
    27    11    13 2   
    28    11    18 1   
    29    12    14 1   
    30    12    22 1   
    31    12    50 1   
    32    13    15 1   
    33    13    17 1   
    34    14    23 2   
    35    16    20 ar  
    36    16    25 ar  
    37    17    19 ar  
    38    17    25 ar  
    39    18    25 1   
    40    18    26 1   
    41    21    22 2   
    42    21    23 1   
    43    22    40 1   
    44    23    24 1   
    45    24    44 1   
    46    24    45 1   
    47    24    46 1   
    48    26    47 1   
    49    26    48 1   
    50    26    49 1   
    51    41    50 1   
    52    42    50 1   
    53    43    50 1   
@<TRIPOS>SUBSTRUCTURE
     1 U0N         1 TEMP              0 ****  ****    0 ROOT
