@<TRIPOS>MOLECULE
U0N
   50    53     1     0     0
SMALL
No Charge or Current Charge


@<TRIPOS>ATOM
      1 C1           3.7400    -5.9390    13.0490 c3         1 U0N      -0.097100
      2 N1           4.5000    -7.4080    14.9440 nh         1 U0N      -0.702400
      3 C2           4.9290    -6.5160    13.8410 c5         1 U0N       0.238500
      4 N2           7.4780    -5.7180    16.8970 n1         1 U0N      -0.510000
      5 C3           5.8210    -7.4880    13.0270 c5         1 U0N      -0.089400
      6 N3           5.4770    -4.3380    19.6050 nv         1 U0N      -1.063900
      7 C4           6.5840    -8.2140    14.1650 c5         1 U0N      -0.097400
      8 N4           3.2340    -4.3920    19.9900 nb         1 U0N      -0.350000
      9 C5           5.4310    -8.5510    15.1500 c5         1 U0N       0.221800
     10 N5           0.9890    -4.4040    20.4440 nu         1 U0N      -0.900900
     11 C6           4.1320    -6.7460    16.1030 cc         1 U0N       0.248900
     12 N6          -2.4430    -5.1230    20.0230 na         1 U0N       0.128800
     13 C7           4.9130    -6.0500    17.0240 cd         1 U0N      -0.103900
     14 N7          -2.5360    -4.3940    21.1950 nc         1 U0N      -0.513800
     15 C8           6.3230    -5.8850    16.9360 ch         1 U0N       0.337700
     16 N8           1.7100    -5.5380    18.5120 nb         1 U0N      -0.296000
     17 C9           4.0310    -5.5180    18.0520 ca         1 U0N      -0.249800
     18 N9           2.8120    -6.6290    16.5640 na         1 U0N      -0.210400
     19 C10          4.2530    -4.7570    19.2040 ca         1 U0N       0.461900
     20 C11          2.0130    -4.8030    19.6020 ca         1 U0N       0.438900
     21 C12         -0.3850    -4.5830    20.4480 cd         1 U0N       0.192000
     22 C13         -1.1440    -5.2570    19.5390 cc         1 U0N      -0.183000
     23 C15         -1.2770    -4.0760    21.4360 cd         1 U0N       0.219300
     24 C16         -0.9120    -3.2600    22.6500 c3         1 U0N      -0.119400
     25 C17          2.7500    -5.8930    17.7360 ca         1 U0N       0.195500
     26 C18          1.5940    -7.1690    15.9380 c3         1 U0N       0.063900
     27 H1           3.1280    -5.2850    13.6810 hc         1 U0N       0.046700
     28 H2           4.0910    -5.3460    12.1960 hc         1 U0N       0.046700
     29 H3           3.0940    -6.7370    12.6640 hc         1 U0N       0.046700
     30 H4           5.5300    -5.6760    14.2190 h1         1 U0N       0.054700
     31 H5           6.4900    -6.9610    12.3370 hc         1 U0N       0.057700
     32 H6           5.2220    -8.1910    12.4350 hc         1 U0N       0.057700
     33 H7           5.5210    -3.6170    20.3200 hn         1 U0N       0.495500
     34 H8           6.2490    -4.3790    18.9470 hn         1 U0N       0.495500
     35 H9           7.1110    -9.1100    13.8210 hc         1 U0N       0.056700
     36 H10          7.3270    -7.5560    14.6290 hc         1 U0N       0.056700
     37 H11          4.9400    -9.4940    14.8730 h1         1 U0N       0.046700
     38 H12          5.7870    -8.6480    16.1840 h1         1 U0N       0.046700
     39 H13          1.3360    -3.8580    21.2320 hn         1 U0N       0.517000
     40 H14         -0.8960    -5.7960    18.6360 h4         1 U0N       0.174000
     41 H15         -4.3470    -4.8560    19.1600 h1         1 U0N       0.053367
     42 H16         -3.3980    -6.2160    18.4910 h1         1 U0N       0.053367
     43 H17         -4.1460    -6.3610    20.1080 h1         1 U0N       0.053367
     44 H18         -1.7960    -3.0010    23.2450 hc         1 U0N       0.046367
     45 H19         -0.2250    -3.8140    23.2990 hc         1 U0N       0.046367
     46 H20         -0.4220    -2.3250    22.3580 hc         1 U0N       0.046367
     47 H21          0.9850    -6.3440    15.5480 h1         1 U0N       0.054367
     48 H22          1.8590    -7.8410    15.1120 h1         1 U0N       0.054367
     49 H23          1.0130    -7.7290    16.6810 h1         1 U0N       0.054367
     50 C14         -3.6590    -5.6730    19.4070 c3         1 U0N       0.079900
@<TRIPOS>BOND
     1     1     3 1   
     2     1    27 1   
     3     1    28 1   
     4     1    29 1   
     5     2     3 1   
     6     2     9 1   
     7     2    11 1   
     8     3     5 1   
     9     3    30 1   
    10     4    15 3   
    11     5     7 1   
    12     5    31 1   
    13     5    32 1   
    14     6    19 1   
    15     6    33 1   
    16     6    34 1   
    17     7     9 1   
    18     7    35 1   
    19     7    36 1   
    20     8    19 ar  
    21     8    20 ar  
    22     9    37 1   
    23     9    38 1   
    24    10    20 1   
    25    10    21 1   
    26    10    39 1   
    27    11    13 2   
    28    11    18 1   
    29    12    14 1   
    30    12    22 1   
    31    12    50 1   
    32    13    15 1   
    33    13    17 1   
    34    14    23 2   
    35    16    20 ar  
    36    16    25 ar  
    37    17    19 ar  
    38    17    25 ar  
    39    18    25 1   
    40    18    26 1   
    41    21    22 2   
    42    21    23 1   
    43    22    40 1   
    44    23    24 1   
    45    24    44 1   
    46    24    45 1   
    47    24    46 1   
    48    26    47 1   
    49    26    48 1   
    50    26    49 1   
    51    41    50 1   
    52    42    50 1   
    53    43    50 1   
@<TRIPOS>SUBSTRUCTURE
     1 U0N         1 TEMP              0 ****  ****    0 ROOT
