@<TRIPOS>MOLECULE
U0O
    9     9     1     0     0
SMALL
No Charge or Current Charge


@<TRIPOS>ATOM
      1 N1           0.7260    -1.7100   -52.3770 na         1 U0O      -0.293500
      2 N           -0.1580    -3.7350   -52.1050 nc         1 U0O      -0.676000
      3 C            1.7820    -2.5820   -52.2190 cd         1 U0O       0.049000
      4 C1           1.2100    -3.8160   -52.0540 cc         1 U0O       0.281900
      5 C2          -0.4390    -2.4510   -52.3020 cd         1 U0O       0.407400
      6 I            3.8080    -1.9710   -52.2500 i          1 U0O      -0.240000
      7 H1           0.7790    -0.7110   -52.5230 hn         1 U0O       0.361000
      8 H3           1.7010    -4.7680   -51.9000 h4         1 U0O       0.049100
      9 H4          -1.4210    -2.0020   -52.3960 h5         1 U0O       0.060100
@<TRIPOS>BOND
     1     1     3 1   
     2     1     5 1   
     3     1     7 1   
     4     2     4 1   
     5     2     5 2   
     6     3     4 2   
     7     3     6 1   
     8     4     8 1   
     9     5     9 1   
@<TRIPOS>SUBSTRUCTURE
     1 U0O         1 TEMP              0 ****  ****    0 ROOT
