@<TRIPOS>MOLECULE
U0O
    9     9     1     0     0
SMALL
abcg2


@<TRIPOS>ATOM
      1 N1           0.7220    -1.7140   -52.3780 na         1 U0O      -0.293500
      2 N           -0.1590    -3.7210   -52.1070 nc         1 U0O      -0.676000
      3 C            1.7720    -2.5860   -52.2170 cd         1 U0O       0.049000
      4 C1           1.2130    -3.8250   -52.0510 cc         1 U0O       0.281900
      5 C2          -0.4190    -2.4440   -52.3030 cd         1 U0O       0.407400
      6 I            3.7510    -1.9740   -52.2540 i          1 U0O      -0.240000
      7 H1           0.7880    -0.7180   -52.5180 hn         1 U0O       0.361000
      8 H3           1.7180    -4.7650   -51.8990 h4         1 U0O       0.049100
      9 H4          -1.3970    -1.9980   -52.3970 h5         1 U0O       0.060100
@<TRIPOS>BOND
     1     1     3 1   
     2     1     5 1   
     3     1     7 1   
     4     2     4 1   
     5     2     5 2   
     6     3     4 2   
     7     3     6 1   
     8     4     8 1   
     9     5     9 1   
@<TRIPOS>SUBSTRUCTURE
     1 U0O         1 TEMP              0 ****  ****    0 ROOT
