@<TRIPOS>MOLECULE
U0P
   30    31     1     0     0
SMALL
No Charge or Current Charge


@<TRIPOS>ATOM
      1 C10          6.3850    -3.1100    20.3730 c          1 U0P       0.651100
      2 N12          6.6650    -3.6560    21.6030 ns         1 U0P      -0.495900
      3 C13          5.8200    -4.5930    22.2910 cx         1 U0P       0.054700
      4 C15          6.1900    -6.0540    22.2200 cx         1 U0P      -0.131400
      5 C01          8.5700    -1.8580    20.6270 c3         1 U0P       0.079300
      6 C03          7.1440    -1.5420    18.5550 c3         1 U0P       0.069700
      7 C04          6.5120    -0.1790    18.6980 cc         1 U0P       0.241300
      8 C05          5.1560     0.0020    19.0200 cc         1 U0P      -0.235000
      9 C06          4.9810     1.3440    19.0620 cd         1 U0P       0.178300
     10 C07          3.7590     2.1650    19.3550 c3         1 U0P      -0.135400
     11 C14          6.3870    -5.2860    23.5050 cx         1 U0P      -0.131400
     12 N02          7.3470    -2.2110    19.8680 n          1 U0P      -0.416800
     13 N09          7.1690     0.9600    18.5400 nd         1 U0P      -0.367300
     14 O08          6.1660     1.9700    18.7780 os         1 U0P      -0.075700
     15 O11          5.3660    -3.3900    19.7600 o          1 U0P      -0.634100
     16 H121         7.5300    -3.3620    22.0340 hn         1 U0P       0.315500
     17 H131         4.7610    -4.3270    22.2990 h1         1 U0P       0.080700
     18 H152         7.0740    -6.3290    21.6510 hc         1 U0P       0.077700
     19 H151         5.3790    -6.7760    22.1790 hc         1 U0P       0.077700
     20 H011         9.1800    -2.7550    20.7890 h1         1 U0P       0.040367
     21 H013         9.1670    -1.1230    20.0710 h1         1 U0P       0.040367
     22 H012         8.2940    -1.4210    21.5950 h1         1 U0P       0.040367
     23 H032         6.5110    -2.1620    17.9070 h1         1 U0P       0.084200
     24 H031         8.1120    -1.4380    18.0470 h1         1 U0P       0.084200
     25 H051         4.4240    -0.7760    19.1980 ha         1 U0P       0.165000
     26 H073         3.5040     2.8030    18.5010 hc         1 U0P       0.062033
     27 H071         2.8960     1.5250    19.5680 hc         1 U0P       0.062033
     28 H072         3.9230     2.8120    20.2240 hc         1 U0P       0.062033
     29 H142         7.4050    -5.0510    23.8030 hc         1 U0P       0.077700
     30 H141         5.7080    -5.4940    24.3280 hc         1 U0P       0.077700
@<TRIPOS>BOND
     1     1     2 1   
     2     1    12 1   
     3     1    15 2   
     4     2     3 1   
     5     2    16 1   
     6     3     4 1   
     7     3    11 1   
     8     3    17 1   
     9     4    11 1   
    10     4    18 1   
    11     4    19 1   
    12     5    12 1   
    13     5    20 1   
    14     5    21 1   
    15     5    22 1   
    16     6     7 1   
    17     6    12 1   
    18     6    23 1   
    19     6    24 1   
    20     7     8 1   
    21     7    13 2   
    22     8     9 2   
    23     8    25 1   
    24     9    10 1   
    25     9    14 1   
    26    10    26 1   
    27    10    27 1   
    28    10    28 1   
    29    11    29 1   
    30    11    30 1   
    31    13    14 1   
@<TRIPOS>SUBSTRUCTURE
     1 U0P         1 TEMP              0 ****  ****    0 ROOT
