@<TRIPOS>MOLECULE
U0P
   30    31     1     0     0
SMALL
abcg2


@<TRIPOS>ATOM
      1 C10          6.5870    -3.1640    20.3510 c          1 U0P       0.651100
      2 N12          6.7790    -3.5220    21.6490 ns         1 U0P      -0.495900
      3 C13          5.8590    -4.3940    22.2990 cx         1 U0P       0.054700
      4 C15          5.9450    -5.8620    22.0390 cx         1 U0P      -0.131400
      5 C01          8.4970    -1.6280    20.6450 c3         1 U0P       0.079300
      6 C03          7.2180    -1.6890    18.5380 c3         1 U0P       0.069700
      7 C04          6.4530    -0.4090    18.6650 cc         1 U0P       0.241300
      8 C05          5.1700    -0.2070    19.2320 cc         1 U0P      -0.235000
      9 C06          4.9710     1.1280    19.1170 cd         1 U0P       0.178300
     10 C07          3.8500     2.0240    19.4920 c3         1 U0P      -0.135400
     11 C14          6.4060    -5.3050    23.3500 cx         1 U0P      -0.131400
     12 N02          7.4970    -2.2840    19.8280 n          1 U0P      -0.416800
     13 N09          6.9660     0.7160    18.2550 nd         1 U0P      -0.367300
     14 O08          6.0400     1.6770    18.5310 os         1 U0P      -0.075700
     15 O11          5.6680    -3.6290    19.6840 o          1 U0P      -0.634100
     16 H121         7.3890    -2.9830    22.2400 hn         1 U0P       0.315500
     17 H131         4.8670    -3.9870    22.4780 h1         1 U0P       0.080700
     18 H152         6.7020    -6.2000    21.3430 hc         1 U0P       0.077700
     19 H151         5.0210    -6.4260    22.0090 hc         1 U0P       0.077700
     20 H011         9.1050    -2.3530    21.1860 h1         1 U0P       0.040367
     21 H013         9.1710    -1.0720    19.9980 h1         1 U0P       0.040367
     22 H012         8.0680    -0.9210    21.3620 h1         1 U0P       0.040367
     23 H032         6.6580    -2.3950    17.9290 h1         1 U0P       0.084200
     24 H031         8.1620    -1.4950    18.0270 h1         1 U0P       0.084200
     25 H051         4.5050    -0.9430    19.6510 ha         1 U0P       0.165000
     26 H073         4.0800     3.0640    19.2710 hc         1 U0P       0.062033
     27 H071         2.9440     1.7520    18.9510 hc         1 U0P       0.062033
     28 H072         3.6340     1.9400    20.5570 hc         1 U0P       0.062033
     29 H142         7.4720    -5.2720    23.5400 hc         1 U0P       0.077700
     30 H141         5.8000    -5.4740    24.2300 hc         1 U0P       0.077700
@<TRIPOS>BOND
     1     1     2 1   
     2     1    12 1   
     3     1    15 2   
     4     2     3 1   
     5     2    16 1   
     6     3     4 1   
     7     3    11 1   
     8     3    17 1   
     9     4    11 1   
    10     4    18 1   
    11     4    19 1   
    12     5    12 1   
    13     5    20 1   
    14     5    21 1   
    15     5    22 1   
    16     6     7 1   
    17     6    12 1   
    18     6    23 1   
    19     6    24 1   
    20     7     8 1   
    21     7    13 2   
    22     8     9 2   
    23     8    25 1   
    24     9    10 1   
    25     9    14 1   
    26    10    26 1   
    27    10    27 1   
    28    10    28 1   
    29    11    29 1   
    30    11    30 1   
    31    13    14 1   
@<TRIPOS>SUBSTRUCTURE
     1 U0P         1 TEMP              0 ****  ****    0 ROOT
