@<TRIPOS>MOLECULE
U0Q
   47    50     1     0     0
SMALL
bcc


@<TRIPOS>ATOM
      1 C1           5.4810    -4.3980    13.6760 c3         1 U0Q      -0.097100
      2 C2           5.6810    -5.6940    14.4390 c5         1 U0Q       0.238500
      3 C3           5.7490    -6.9310    13.5520 c5         1 U0Q      -0.089400
      4 C4           5.3470    -8.0550    14.4950 c5         1 U0Q      -0.097400
      5 C5           4.2060    -7.4340    15.2920 c5         1 U0Q       0.220800
      6 N1           4.5480    -6.0030    15.3210 nh         1 U0Q      -0.702400
      7 C6           4.2430    -5.2230    16.3840 cc         1 U0Q       0.248900
      8 C7           5.0200    -4.3240    17.1140 cd         1 U0Q      -0.103900
      9 C8           6.3940    -4.0820    16.9930 ch         1 U0Q       0.249500
     10 N2           7.5260    -3.8420    16.9470 n1         1 U0Q      -0.421800
     11 C9           4.1590    -3.7540    18.1200 ca         1 U0Q      -0.378400
     12 C10          4.2470    -2.8140    19.1630 ca         1 U0Q       0.788200
     13 N3           5.3720    -2.1270    19.4340 nv         1 U0Q      -0.953500
     14 N4           3.1730    -2.5590    19.9060 nb         1 U0Q      -0.878000
     15 C11          2.0290    -3.1970    19.6330 ca         1 U0Q       0.966900
     16 N5           0.9930    -2.8560    20.4450 nu         1 U0Q      -0.713300
     17 C12         -0.3110    -3.3250    20.4240 cc         1 U0Q       0.001300
     18 C13         -1.3020    -2.9050    21.2890 cd         1 U0Q      -0.211300
     19 N6          -2.4180    -3.5830    20.9570 na         1 U0Q       0.119400
     20 C14         -3.7160    -3.4590    21.5750 c3         1 U0Q       0.044600
     21 N7          -2.2230    -4.4080    19.9440 nd         1 U0Q      -0.522800
     22 C15         -0.9500    -4.2740    19.6000 cc         1 U0Q       0.307200
     23 N8           1.8260    -4.0990    18.6810 nb         1 U0Q      -0.811000
     24 C16          2.9140    -4.3410    17.9610 ca         1 U0Q       0.522800
     25 N9           2.9710    -5.2150    16.9080 na         1 U0Q      -0.178100
     26 C17          1.8100    -5.8570    16.3320 c3         1 U0Q       0.032600
     27 H1           5.4080    -3.5340    14.3370 hc         1 U0Q       0.047033
     28 H2           6.3260    -4.2280    13.0080 hc         1 U0Q       0.047033
     29 H3           4.5730    -4.4450    13.0730 hc         1 U0Q       0.047033
     30 H4           6.6120    -5.6400    15.0130 h1         1 U0Q       0.052700
     31 H5           6.7400    -7.0590    13.1200 hc         1 U0Q       0.057200
     32 H6           5.0320    -6.8460    12.7310 hc         1 U0Q       0.057200
     33 H7           5.0380    -8.9640    13.9800 hc         1 U0Q       0.056200
     34 H8           6.1780    -8.3100    15.1560 hc         1 U0Q       0.056200
     35 H9           3.2520    -7.6050    14.7880 h1         1 U0Q       0.047700
     36 H10          4.1280    -7.8400    16.3020 h1         1 U0Q       0.047700
     37 H11          5.4060    -1.5840    20.2810 hn         1 U0Q       0.439800
     38 H12          6.2560    -2.4110    19.0500 hn         1 U0Q       0.439800
     39 H13          1.2160    -2.1660    21.1450 hn         1 U0Q       0.456800
     40 H14         -1.2800    -2.1870    22.0940 h4         1 U0Q       0.171000
     41 H15         -4.3850    -4.1760    21.1090 h1         1 U0Q       0.056033
     42 H16         -3.6560    -3.6710    22.6410 h1         1 U0Q       0.056033
     43 H17         -4.1170    -2.4560    21.4360 h1         1 U0Q       0.056033
     44 H18         -0.5370    -4.8500    18.7910 h4         1 U0Q       0.058100
     45 H19          0.9210    -5.3610    16.7120 h1         1 U0Q       0.057033
     46 H20          1.8310    -5.7590    15.2490 h1         1 U0Q       0.057033
     47 H21          1.7560    -6.9120    16.5960 h1         1 U0Q       0.057033
@<TRIPOS>BOND
     1     1     2 1   
     2     1    27 1   
     3     1    28 1   
     4     1    29 1   
     5     2     3 1   
     6     2     6 1   
     7     2    30 1   
     8     3     4 1   
     9     3    31 1   
    10     3    32 1   
    11     4     5 1   
    12     4    33 1   
    13     4    34 1   
    14     5     6 1   
    15     5    35 1   
    16     5    36 1   
    17     6     7 1   
    18     7     8 2   
    19     7    25 1   
    20     8     9 1   
    21     8    11 1   
    22     9    10 3   
    23    11    12 ar  
    24    11    24 ar  
    25    12    13 1   
    26    12    14 ar  
    27    13    37 1   
    28    13    38 1   
    29    14    15 ar  
    30    15    16 1   
    31    15    23 ar  
    32    16    17 1   
    33    16    39 1   
    34    17    18 2   
    35    17    22 1   
    36    18    19 1   
    37    18    40 1   
    38    19    20 1   
    39    19    21 1   
    40    20    41 1   
    41    20    42 1   
    42    20    43 1   
    43    21    22 2   
    44    22    44 1   
    45    23    24 ar  
    46    24    25 1   
    47    25    26 1   
    48    26    45 1   
    49    26    46 1   
    50    26    47 1   
@<TRIPOS>SUBSTRUCTURE
     1 U0Q         1 TEMP              0 ****  ****    0 ROOT
