@<TRIPOS>MOLECULE
U0Q
   47    50     1     0     0
SMALL
No Charge or Current Charge


@<TRIPOS>ATOM
      1 C1           4.0670    -4.6730    13.3120 c3         1 U0Q      -0.097100
      2 C2           5.1500    -5.3690    14.1600 c5         1 U0Q       0.238500
      3 C3           6.0070    -6.3960    13.3750 c5         1 U0Q      -0.089400
      4 C4           6.6310    -7.2100    14.5380 c5         1 U0Q      -0.097400
      5 C5           5.3930    -7.4680    15.4400 c5         1 U0Q       0.220800
      6 N1           4.5780    -6.2440    15.2090 nh         1 U0Q      -0.702400
      7 C6           4.1930    -5.5800    16.3610 cc         1 U0Q       0.248900
      8 C7           4.9700    -4.9720    17.3450 cd         1 U0Q      -0.103900
      9 C8           6.3920    -4.9280    17.3500 ch         1 U0Q       0.338700
     10 N2           7.5570    -4.8740    17.3950 n1         1 U0Q      -0.511000
     11 C9           4.0720    -4.3930    18.3340 ca         1 U0Q      -0.247800
     12 C10          4.2840    -3.6750    19.5160 ca         1 U0Q       0.459900
     13 N3           5.5100    -3.3630    19.9980 nv         1 U0Q      -1.063900
     14 N4           3.2520    -3.2500    20.2510 nb         1 U0Q      -0.352000
     15 C11          2.0280    -3.5520    19.7810 ca         1 U0Q       0.440900
     16 N5           0.9880    -3.0910    20.5720 nu         1 U0Q      -0.906900
     17 C12         -0.3970    -3.1570    20.5000 cc         1 U0Q       0.205000
     18 C13         -1.2840    -2.6190    21.3740 cd         1 U0Q      -0.244000
     19 N6          -2.5450    -2.9570    20.8680 na         1 U0Q       0.140800
     20 C14         -3.8430    -2.6030    21.4600 c3         1 U0Q       0.073900
     21 N7          -2.4800    -3.6960    19.6940 nd         1 U0Q      -0.522800
     22 C15         -1.1770    -3.7970    19.5030 cc         1 U0Q       0.241900
     23 N8           1.7340    -4.2340    18.6550 nb         1 U0Q      -0.285000
     24 C16          2.7880    -4.6540    17.9320 ca         1 U0Q       0.194500
     25 N9           2.8610    -5.3650    16.7460 na         1 U0Q      -0.207400
     26 C17          1.6450    -5.7900    16.0340 c3         1 U0Q       0.061900
     27 H1           3.4740    -3.9840    13.9240 hc         1 U0Q       0.047033
     28 H2           4.5210    -4.0940    12.4990 hc         1 U0Q       0.047033
     29 H3           3.3820    -5.4040    12.8660 hc         1 U0Q       0.047033
     30 H4           5.7950    -4.5930    14.5970 h1         1 U0Q       0.052700
     31 H5           6.7600    -5.9140    12.7430 hc         1 U0Q       0.057200
     32 H6           5.3890    -7.0310    12.7290 hc         1 U0Q       0.057200
     33 H7           7.1010    -8.1410    14.2020 hc         1 U0Q       0.056200
     34 H8           7.3960    -6.6300    15.0640 hc         1 U0Q       0.056200
     35 H9           4.8420    -8.3590    15.1070 h1         1 U0Q       0.047700
     36 H10          5.6730    -7.6190    16.4910 h1         1 U0Q       0.047700
     37 H11          5.5740    -3.0370    20.9590 hn         1 U0Q       0.495000
     38 H12          6.3230    -3.8430    19.6220 hn         1 U0Q       0.495000
     39 H13          1.3270    -2.5830    21.3890 hn         1 U0Q       0.512000
     40 H14         -1.1370    -2.0460    22.2800 h4         1 U0Q       0.153000
     41 H15         -4.3980    -3.5180    21.6990 h1         1 U0Q       0.056033
     42 H16         -3.6870    -2.0240    22.3770 h1         1 U0Q       0.056033
     43 H17         -4.4200    -2.0030    20.7460 h1         1 U0Q       0.056033
     44 H18         -0.8320    -4.3400    18.6350 h4         1 U0Q       0.058100
     45 H19          1.1270    -4.9090    15.6340 h1         1 U0Q       0.057033
     46 H20          1.9060    -6.4590    15.2050 h1         1 U0Q       0.057033
     47 H21          0.9770    -6.3200    16.7240 h1         1 U0Q       0.057033
@<TRIPOS>BOND
     1     1     2 1   
     2     1    27 1   
     3     1    28 1   
     4     1    29 1   
     5     2     3 1   
     6     2     6 1   
     7     2    30 1   
     8     3     4 1   
     9     3    31 1   
    10     3    32 1   
    11     4     5 1   
    12     4    33 1   
    13     4    34 1   
    14     5     6 1   
    15     5    35 1   
    16     5    36 1   
    17     6     7 1   
    18     7     8 2   
    19     7    25 1   
    20     8     9 1   
    21     8    11 1   
    22     9    10 3   
    23    11    12 ar  
    24    11    24 ar  
    25    12    13 1   
    26    12    14 ar  
    27    13    37 1   
    28    13    38 1   
    29    14    15 ar  
    30    15    16 1   
    31    15    23 ar  
    32    16    17 1   
    33    16    39 1   
    34    17    18 2   
    35    17    22 1   
    36    18    19 1   
    37    18    40 1   
    38    19    20 1   
    39    19    21 1   
    40    20    41 1   
    41    20    42 1   
    42    20    43 1   
    43    21    22 2   
    44    22    44 1   
    45    23    24 ar  
    46    24    25 1   
    47    25    26 1   
    48    26    45 1   
    49    26    46 1   
    50    26    47 1   
@<TRIPOS>SUBSTRUCTURE
     1 U0Q         1 TEMP              0 ****  ****    0 ROOT
