@<TRIPOS>MOLECULE
U0R
   27    28     1     0     0
SMALL
No Charge or Current Charge


@<TRIPOS>ATOM
      1 C13         25.9720    -4.6710    17.2420 ca         1 U0R      -0.015900
      2 C15         24.9110    -4.5660    18.1600 ca         1 U0R       0.324900
      3 C17         23.8620    -2.9170    16.8720 ca         1 U0R       0.228500
      4 C02         25.6760     0.3120    12.9630 ca         1 U0R       0.132000
      5 C03         25.3030     1.2520    11.9860 ca         1 U0R      -0.097000
      6 C04         24.7180     0.8270    10.7820 ca         1 U0R      -0.069000
      7 C05         24.5040    -0.5420    10.5560 ca         1 U0R      -0.012900
      8 C07         24.8750    -1.4870    11.5290 ca         1 U0R      -0.053000
      9 C08         25.4660    -1.0680    12.7390 ca         1 U0R      -0.084300
     10 C09         25.8570    -2.1070    13.7830 c3         1 U0R       0.211900
     11 C11         24.8980    -2.9660    15.8990 ca         1 U0R       0.136100
     12 C12         25.9730    -3.8630    16.0930 ca         1 U0R      -0.153000
     13 C18         22.7020    -1.9550    16.6770 c          1 U0R       0.480400
     14 N16         23.8740    -3.7110    17.9880 nb         1 U0R      -0.588000
     15 O10         24.8310    -2.1390    14.7910 os         1 U0R      -0.346100
     16 O19         21.7580    -1.8380    17.4580 o          1 U0R      -0.480100
     17 Br14        27.4030    -5.9030    17.5520 br         1 U0R      -0.074100
     18 Cl01        26.4000     0.8970    14.4620 cl         1 U0R      -0.201000
     19 H1          24.8890    -5.1830    19.0580 h4         1 U0R       0.046100
     20 H2          25.4670     2.3120    12.1650 ha         1 U0R       0.138000
     21 H3          24.4300     1.5570    10.0280 ha         1 U0R       0.139000
     22 H4          24.7000    -2.5440    11.3420 ha         1 U0R       0.147000
     23 H5          25.9580    -3.0900    13.3050 h1         1 U0R       0.062200
     24 H6          26.8290    -1.8460    14.2210 h1         1 U0R       0.062200
     25 H7          26.7920    -3.9470    15.3850 ha         1 U0R       0.142000
     26 H8          22.7350    -1.3290    15.7590 h4         1 U0R       0.010200
     27 Br06        23.7040    -1.1250     8.9200 br         1 U0R      -0.087100
@<TRIPOS>BOND
     1     1     2 ar  
     2     1    12 ar  
     3     1    17 1   
     4     2    14 ar  
     5     2    19 1   
     6     3    11 ar  
     7     3    13 1   
     8     3    14 ar  
     9     4     5 ar  
    10     4     9 ar  
    11     4    18 1   
    12     5     6 ar  
    13     5    20 1   
    14     6     7 ar  
    15     6    21 1   
    16     7     8 ar  
    17     7    27 1   
    18     8     9 ar  
    19     8    22 1   
    20     9    10 1   
    21    10    15 1   
    22    10    23 1   
    23    10    24 1   
    24    11    12 ar  
    25    11    15 1   
    26    12    25 1   
    27    13    16 2   
    28    13    26 1   
@<TRIPOS>SUBSTRUCTURE
     1 U0R         1 TEMP              0 ****  ****    0 ROOT
