@<TRIPOS>MOLECULE
U0R
   27    28     1     0     0
SMALL
abcg2


@<TRIPOS>ATOM
      1 C13         26.0580    -4.1830    17.4910 ca         1 U0R      -0.015900
      2 C15         24.8570    -4.7270    17.9560 ca         1 U0R       0.324900
      3 C17         23.6780    -3.6170    16.3170 ca         1 U0R       0.228500
      4 C02         26.4720    -0.0620    12.2990 ca         1 U0R       0.132000
      5 C03         26.1500     0.7270    11.2040 ca         1 U0R      -0.097000
      6 C04         24.8300     0.8140    10.7820 ca         1 U0R      -0.069000
      7 C05         23.8630     0.1030    11.4750 ca         1 U0R      -0.012900
      8 C07         24.1800    -0.6840    12.5720 ca         1 U0R      -0.053000
      9 C08         25.5010    -0.7780    13.0000 ca         1 U0R      -0.084300
     10 C09         25.8960    -1.6200    14.1800 c3         1 U0R       0.211900
     11 C11         24.8530    -3.0410    15.7910 ca         1 U0R       0.136100
     12 C12         26.0750    -3.3350    16.4030 ca         1 U0R      -0.153000
     13 C18         22.3580    -3.3250    15.7140 c          1 U0R       0.480400
     14 N16         23.7080    -4.4390    17.3720 nb         1 U0R      -0.588000
     15 O10         24.7280    -2.2370    14.7220 os         1 U0R      -0.346100
     16 O19         21.3120    -3.7950    16.1150 o          1 U0R      -0.480100
     17 BR14        27.6810    -4.6220    18.3760 br         1 U0R      -0.074100
     18 CL01        28.1450    -0.1550    12.8030 cl         1 U0R      -0.201000
     19 H1          24.8430    -5.3950    18.8080 h4         1 U0R       0.046100
     20 H2          26.9260     1.2700    10.6830 ha         1 U0R       0.138000
     21 H3          24.5710     1.4270     9.9310 ha         1 U0R       0.139000
     22 H4          23.4090    -1.2270    13.0960 ha         1 U0R       0.147000
     23 H5          26.6090    -2.3890    13.8720 h1         1 U0R       0.062200
     24 H6          26.3720    -0.9990    14.9440 h1         1 U0R       0.062200
     25 H7          27.0040    -2.9190    16.0460 ha         1 U0R       0.142000
     26 H8          22.3700    -2.6360    14.8570 h4         1 U0R       0.010200
     27 BR06        22.0380     0.2040    10.9070 br         1 U0R      -0.087100
@<TRIPOS>BOND
     1     1     2 ar  
     2     1    12 ar  
     3     1    17 1   
     4     2    14 ar  
     5     2    19 1   
     6     3    11 ar  
     7     3    13 1   
     8     3    14 ar  
     9     4     5 ar  
    10     4     9 ar  
    11     4    18 1   
    12     5     6 ar  
    13     5    20 1   
    14     6     7 ar  
    15     6    21 1   
    16     7     8 ar  
    17     7    27 1   
    18     8     9 ar  
    19     8    22 1   
    20     9    10 1   
    21    10    15 1   
    22    10    23 1   
    23    10    24 1   
    24    11    12 ar  
    25    11    15 1   
    26    12    25 1   
    27    13    16 2   
    28    13    26 1   
@<TRIPOS>SUBSTRUCTURE
     1 U0R         1 TEMP              0 ****  ****    0 ROOT
