@<TRIPOS>MOLECULE
U0S
   30    32     1     0     0
SMALL
abcg2


@<TRIPOS>ATOM
      1 C10          7.3970   -18.7310    -2.6000 c5         1 U0S       0.153600
      2 C13          5.0100   -20.9320    -0.6760 c5         1 U0S       0.249800
      3 C01          2.3150   -24.8250     0.8500 ca         1 U0S       0.207900
      4 C02          2.1790   -23.4510     0.8670 ca         1 U0S       0.343900
      5 C04          4.1980   -23.1890    -0.1440 ca         1 U0S       0.583900
      6 C06          6.4330   -22.8360    -1.1360 c5         1 U0S       0.227800
      7 C07          7.2410   -21.5490    -1.2440 c5         1 U0S      -0.084400
      8 C08          6.1820   -20.4820    -1.5400 c5         1 U0S      -0.110000
      9 C09          6.6500   -19.0500    -1.3090 c5         1 U0S      -0.101400
     10 C12          5.8620   -20.4180    -3.0340 c5         1 U0S       0.162600
     11 C14          4.3310   -24.6010    -0.1700 ca         1 U0S       0.220900
     12 N03          3.1040   -22.6340     0.3800 nb         1 U0S      -0.732000
     13 N05          5.1480   -22.3770    -0.6390 nh         1 U0S      -0.793300
     14 N15          3.4040   -25.3890     0.3220 nb         1 U0S      -0.601000
     15 O11          6.8590   -19.5900    -3.6010 os         1 U0S      -0.460000
     16 H102         7.2800   -17.6860    -2.8980 h1         1 U0S       0.045700
     17 H101         8.4690   -18.9290    -2.4980 h1         1 U0S       0.045700
     18 H131         5.0760   -20.5030     0.3310 h1         1 U0S       0.060700
     19 H132         4.0450   -20.6330    -1.0910 h1         1 U0S       0.060700
     20 H021         1.2930   -22.9900     1.2890 h4         1 U0S       0.023100
     21 H061         6.8970   -23.5520    -0.4540 h1         1 U0S       0.049200
     22 H062         6.3290   -23.3330    -2.1080 h1         1 U0S       0.049200
     23 H072         7.7260   -21.3310    -0.2900 hc         1 U0S       0.062700
     24 H071         8.0210   -21.6140    -2.0040 hc         1 U0S       0.062700
     25 H091         7.2790   -18.9470    -0.4240 hc         1 U0S       0.059200
     26 H092         5.7870   -18.3900    -1.1860 hc         1 U0S       0.059200
     27 H122         4.8600   -19.9930    -3.1890 h1         1 U0S       0.050700
     28 H121         5.8880   -21.3910    -3.5330 h1         1 U0S       0.050700
     29 H141         5.2030   -25.0740    -0.6070 h4         1 U0S       0.025100
     30 H011         1.5510   -25.4750     1.2560 h4         1 U0S       0.029100
@<TRIPOS>BOND
     1     1     9 1   
     2     1    15 1   
     3     1    16 1   
     4     1    17 1   
     5     2     8 1   
     6     2    13 1   
     7     2    18 1   
     8     2    19 1   
     9     3     4 ar  
    10     3    14 ar  
    11     3    30 1   
    12     4    12 ar  
    13     4    20 1   
    14     5    11 ar  
    15     5    12 ar  
    16     5    13 1   
    17     6     7 1   
    18     6    13 1   
    19     6    21 1   
    20     6    22 1   
    21     7     8 1   
    22     7    23 1   
    23     7    24 1   
    24     8     9 1   
    25     8    10 1   
    26     9    25 1   
    27     9    26 1   
    28    10    15 1   
    29    10    27 1   
    30    10    28 1   
    31    11    14 ar  
    32    11    29 1   
@<TRIPOS>SUBSTRUCTURE
     1 U0S         1 TEMP              0 ****  ****    0 ROOT
