@<TRIPOS>MOLECULE
U0S
   30    32     1     0     0
SMALL
No Charge or Current Charge


@<TRIPOS>ATOM
      1 C10          7.3720   -18.7050    -2.6760 c5         1 U0S       0.153600
      2 C13          5.0220   -20.8750    -0.6230 c5         1 U0S       0.249800
      3 C01          2.2320   -24.8850     0.8220 ca         1 U0S       0.207900
      4 C02          2.1230   -23.4680     0.8810 ca         1 U0S       0.343900
      5 C04          4.1780   -23.2440    -0.1230 ca         1 U0S       0.583900
      6 C06          6.4840   -22.8270    -1.1470 c5         1 U0S       0.227800
      7 C07          7.3220   -21.5210    -1.1930 c5         1 U0S      -0.084400
      8 C08          6.2190   -20.4750    -1.5210 c5         1 U0S      -0.110000
      9 C09          6.6950   -19.0160    -1.3030 c5         1 U0S      -0.101400
     10 C12          5.8470   -20.4710    -3.0220 c5         1 U0S       0.162600
     11 C14          4.2850   -24.6760    -0.1820 ca         1 U0S       0.220900
     12 N03          3.0910   -22.6340     0.4100 nb         1 U0S      -0.732000
     13 N05          5.1720   -22.3610    -0.6060 nh         1 U0S      -0.793300
     14 N15          3.3150   -25.5130     0.2890 nb         1 U0S      -0.601000
     15 O11          6.9590   -19.7520    -3.5980 os         1 U0S      -0.460000
     16 H102         7.0620   -17.7270    -3.0680 h1         1 U0S       0.045700
     17 H101         8.4680   -18.7170    -2.6020 h1         1 U0S       0.045700
     18 H131         5.1230   -20.4610     0.3900 h1         1 U0S       0.060700
     19 H132         4.0630   -20.5420    -1.0440 h1         1 U0S       0.060700
     20 H021         1.2410   -22.9980     1.3150 h4         1 U0S       0.023100
     21 H061         6.9620   -23.5770    -0.5020 h1         1 U0S       0.049200
     22 H062         6.3640   -23.2620    -2.1490 h1         1 U0S       0.049200
     23 H072         7.7790   -21.3260    -0.2160 hc         1 U0S       0.062700
     24 H071         8.1310   -21.5660    -1.9310 hc         1 U0S       0.062700
     25 H091         7.3810   -18.9010    -0.4560 hc         1 U0S       0.059200
     26 H092         5.8510   -18.3370    -1.1320 hc         1 U0S       0.059200
     27 H122         4.9220   -19.9100    -3.2150 h1         1 U0S       0.050700
     28 H121         5.7600   -21.4680    -3.4730 h1         1 U0S       0.050700
     29 H141         5.1590   -25.1570    -0.6160 h4         1 U0S       0.025100
     30 H011         1.4370   -25.5210     1.2090 h4         1 U0S       0.029100
@<TRIPOS>BOND
     1     1     9 1   
     2     1    15 1   
     3     1    16 1   
     4     1    17 1   
     5     2     8 1   
     6     2    13 1   
     7     2    18 1   
     8     2    19 1   
     9     3     4 ar  
    10     3    14 ar  
    11     3    30 1   
    12     4    12 ar  
    13     4    20 1   
    14     5    11 ar  
    15     5    12 ar  
    16     5    13 1   
    17     6     7 1   
    18     6    13 1   
    19     6    21 1   
    20     6    22 1   
    21     7     8 1   
    22     7    23 1   
    23     7    24 1   
    24     8     9 1   
    25     8    10 1   
    26     9    25 1   
    27     9    26 1   
    28    10    15 1   
    29    10    27 1   
    30    10    28 1   
    31    11    14 ar  
    32    11    29 1   
@<TRIPOS>SUBSTRUCTURE
     1 U0S         1 TEMP              0 ****  ****    0 ROOT
