@<TRIPOS>MOLECULE
U0T
   58    62     1     0     0
SMALL
No Charge or Current Charge


@<TRIPOS>ATOM
      1 C1           4.2280    -5.8700    12.8760 c3         1 U0T      -0.098100
      2 N1           4.8080    -7.5310    14.6730 nh         1 U0T      -0.704400
      3 O1          -4.4090    -6.7960    21.9640 os         1 U0T      -0.443000
      4 C2           5.3410    -6.5680    13.6810 c5         1 U0T       0.239500
      5 N2           7.7260    -6.1690    16.9460 n1         1 U0T      -0.513000
      6 C3           6.2410    -7.5060    12.8360 c5         1 U0T      -0.090400
      7 N3           5.6160    -4.9140    19.6330 nv         1 U0T      -1.065900
      8 C4           6.9010    -8.3630    13.9480 c5         1 U0T      -0.097400
      9 N4           3.3550    -4.9150    19.8880 nb         1 U0T      -0.353000
     10 C5           5.6770    -8.7300    14.8290 c5         1 U0T       0.221800
     11 N5           1.0870    -4.8770    20.2110 nu         1 U0T      -0.910900
     12 C6           4.3960    -6.9570    15.8630 cc         1 U0T       0.250900
     13 N6          -2.4220    -4.9260    20.5500 na         1 U0T       0.137800
     14 C7           5.1460    -6.3770    16.8850 cd         1 U0T      -0.105900
     15 N7          -2.3490    -5.5670    19.3220 nc         1 U0T      -0.510800
     16 C8           6.5640    -6.2720    16.8950 ch         1 U0T       0.338700
     17 N8           1.8800    -5.8640    18.2300 nb         1 U0T      -0.283000
     18 C9           4.2240    -5.9000    17.9050 ca         1 U0T      -0.247800
     19 N9           3.0560    -6.8250    16.2570 na         1 U0T      -0.207400
     20 C10          4.4040    -5.2490    19.1300 ca         1 U0T       0.459900
     21 C11          2.1460    -5.2410    19.3970 ca         1 U0T       0.439900
     22 C12         -0.2890    -5.0070    20.1270 cd         1 U0T       0.205000
     23 C13         -1.1710    -4.5560    21.0630 cc         1 U0T      -0.200300
     24 C14         -0.9210    -3.8340    22.3670 c3         1 U0T      -0.020800
     25 C15         -1.0500    -5.6100    19.0880 cd         1 U0T       0.249900
     26 C16         -3.7310    -4.6650    21.1940 c5         1 U0T       0.063300
     27 C17         -5.0180    -5.0720    20.4120 c5         1 U0T      -0.111400
     28 C18         -5.1340    -6.5920    20.7270 c5         1 U0T       0.156600
     29 C19         -3.9940    -5.5080    22.4680 c5         1 U0T       0.138600
     30 C20          2.9510    -6.1920    17.4850 ca         1 U0T       0.194500
     31 C21          1.8580    -7.2580    15.5180 c3         1 U0T       0.061900
     32 H1           3.6060    -5.2460    13.5280 hc         1 U0T       0.046700
     33 H2           4.6550    -5.2220    12.1020 hc         1 U0T       0.046700
     34 H3           3.5750    -6.6000    12.3850 hc         1 U0T       0.046700
     35 H4           5.9510    -5.7930    14.1670 h1         1 U0T       0.053700
     36 H5           6.9730    -6.9530    12.2360 hc         1 U0T       0.057200
     37 H6           5.6510    -8.1270    12.1510 hc         1 U0T       0.057200
     38 H7           5.6660    -4.6450    20.6120 hn         1 U0T       0.495500
     39 H8           6.4480    -5.3330    19.2290 hn         1 U0T       0.495500
     40 H9           7.4120    -9.2490    13.5560 hc         1 U0T       0.056700
     41 H10          7.6410    -7.7820    14.5110 hc         1 U0T       0.056700
     42 H11          5.1650    -9.6220    14.4410 h1         1 U0T       0.047700
     43 H12          5.9640    -8.9330    15.8700 h1         1 U0T       0.047700
     44 H13          1.4000    -4.4130    21.0630 hn         1 U0T       0.511000
     45 H14         -1.7530    -3.1700    22.6280 hc         1 U0T       0.045700
     46 H15         -0.7890    -4.5490    23.1880 hc         1 U0T       0.045700
     47 H16         -0.0180    -3.2160    22.3110 hc         1 U0T       0.045700
     48 H17         -0.7010    -6.0760    18.1760 h4         1 U0T       0.055100
     49 H18         -3.7720    -3.5960    21.4340 h1         1 U0T       0.074700
     50 H19         -4.9650    -4.8600    19.3380 hc         1 U0T       0.066200
     51 H20         -5.8940    -4.5360    20.7950 hc         1 U0T       0.066200
     52 H21         -6.1770    -6.9140    20.8460 h1         1 U0T       0.052200
     53 H22         -4.6660    -7.2060    19.9450 h1         1 U0T       0.052200
     54 H23         -4.8090    -5.0820    23.0690 h1         1 U0T       0.055200
     55 H24         -3.1080    -5.6200    23.1070 h1         1 U0T       0.055200
     56 H25          1.3040    -6.3780    15.1710 h1         1 U0T       0.057033
     57 H26          2.1480    -7.8640    14.6510 h1         1 U0T       0.057033
     58 H27          1.2150    -7.8570    16.1740 h1         1 U0T       0.057033
@<TRIPOS>BOND
     1     1     4 1   
     2     1    32 1   
     3     1    33 1   
     4     1    34 1   
     5     2     4 1   
     6     2    10 1   
     7     2    12 1   
     8     3    28 1   
     9     3    29 1   
    10     4     6 1   
    11     4    35 1   
    12     5    16 3   
    13     6     8 1   
    14     6    36 1   
    15     6    37 1   
    16     7    20 1   
    17     7    38 1   
    18     7    39 1   
    19     8    10 1   
    20     8    40 1   
    21     8    41 1   
    22     9    20 ar  
    23     9    21 ar  
    24    10    42 1   
    25    10    43 1   
    26    11    21 1   
    27    11    22 1   
    28    11    44 1   
    29    12    14 2   
    30    12    19 1   
    31    13    15 1   
    32    13    23 1   
    33    13    26 1   
    34    14    16 1   
    35    14    18 1   
    36    15    25 2   
    37    17    21 ar  
    38    17    30 ar  
    39    18    20 ar  
    40    18    30 ar  
    41    19    30 1   
    42    19    31 1   
    43    22    23 2   
    44    22    25 1   
    45    23    24 1   
    46    24    45 1   
    47    24    46 1   
    48    24    47 1   
    49    25    48 1   
    50    26    27 1   
    51    26    29 1   
    52    26    49 1   
    53    27    28 1   
    54    27    50 1   
    55    27    51 1   
    56    28    52 1   
    57    28    53 1   
    58    29    54 1   
    59    29    55 1   
    60    31    56 1   
    61    31    57 1   
    62    31    58 1   
@<TRIPOS>SUBSTRUCTURE
     1 U0T         1 TEMP              0 ****  ****    0 ROOT
