@<TRIPOS>MOLECULE
U0T
   58    62     1     0     0
SMALL
bcc


@<TRIPOS>ATOM
      1 C1           5.5930    -5.7640    13.3130 c3         1 U0T      -0.098100
      2 N1           4.6410    -7.3680    14.9490 nh         1 U0T      -0.704400
      3 O1          -3.9110    -7.5700    21.0780 os         1 U0T      -0.396600
      4 C2           5.7760    -7.0660    14.0680 c5         1 U0T       0.239500
      5 N2           7.6270    -5.2210    16.5710 n1         1 U0T      -0.423800
      6 C3           5.8250    -8.2980    13.1710 c5         1 U0T      -0.090400
      7 N3           5.4720    -3.4660    19.0340 nv         1 U0T      -0.955500
      8 C4           5.4090    -9.4240    14.1050 c5         1 U0T      -0.097400
      9 N4           3.2680    -3.8740    19.4970 nb         1 U0T      -0.879000
     10 C5           4.2760    -8.7930    14.9060 c5         1 U0T       0.221800
     11 N5           1.0780    -4.1430    20.0200 nu         1 U0T      -0.717300
     12 C6           4.3370    -6.5850    16.0110 cc         1 U0T       0.250900
     13 N6          -2.2770    -5.0810    20.5850 na         1 U0T       0.116400
     14 C7           5.1170    -5.6850    16.7360 cd         1 U0T      -0.105900
     15 N7          -2.1810    -5.5110    19.3350 nc         1 U0T      -0.510800
     16 C8           6.4930    -5.4530    16.6160 ch         1 U0T       0.249500
     17 N8           1.9200    -5.4260    18.2900 nb         1 U0T      -0.809000
     18 C9           4.2570    -5.1020    17.7350 ca         1 U0T      -0.378400
     19 N9           3.0650    -6.5690    16.5330 na         1 U0T      -0.178100
     20 C10          4.3450    -4.1480    18.7660 ca         1 U0T       0.788200
     21 C11          2.1210    -4.5100    19.2270 ca         1 U0T       0.965900
     22 C12         -0.2230    -4.6330    19.9940 cd         1 U0T       0.001300
     23 C13         -1.1150    -4.5590    21.0490 cc         1 U0T      -0.149600
     24 C14         -0.9480    -4.0300    22.4290 c3         1 U0T      -0.020800
     25 C15         -0.9480    -5.2390    18.9500 cd         1 U0T       0.315200
     26 C16         -3.4820    -5.2950    21.3650 c5         1 U0T       0.034000
     27 C17         -4.7320    -5.4190    20.4990 c5         1 U0T      -0.111400
     28 C18         -4.8300    -6.9220    20.2080 c5         1 U0T       0.133400
     29 C19         -3.4830    -6.6550    22.0580 c5         1 U0T       0.115400
     30 C20          3.0100    -5.6850    17.5790 ca         1 U0T       0.522800
     31 C21          1.9000    -7.2050    15.9590 c3         1 U0T       0.032600
     32 H1           5.5370    -4.9020    13.9780 hc         1 U0T       0.046700
     33 H2           6.4370    -5.6040    12.6410 hc         1 U0T       0.046700
     34 H3           4.6810    -5.7930    12.7140 hc         1 U0T       0.046700
     35 H4           6.7100    -7.0290    14.6410 h1         1 U0T       0.053700
     36 H5           6.8140    -8.4370    12.7350 hc         1 U0T       0.057200
     37 H6           5.1080    -8.1950    12.3520 hc         1 U0T       0.057200
     38 H7           5.5040    -2.9020    19.8670 hn         1 U0T       0.440300
     39 H8           6.3570    -3.7560    18.6540 hn         1 U0T       0.440300
     40 H9           5.0850   -10.3240    13.5830 hc         1 U0T       0.056700
     41 H10          6.2360    -9.6960    14.7630 hc         1 U0T       0.056700
     42 H11          3.3210    -8.9430    14.3980 h1         1 U0T       0.047700
     43 H12          4.1890    -9.2070    15.9120 h1         1 U0T       0.047700
     44 H13          1.3030    -3.4530    20.7180 hn         1 U0T       0.455800
     45 H14         -1.5610    -3.1440    22.6080 hc         1 U0T       0.045700
     46 H15         -1.2140    -4.7710    23.1840 hc         1 U0T       0.045700
     47 H16          0.0890    -3.7510    22.6100 hc         1 U0T       0.045700
     48 H17         -0.6150    -5.4860    17.9570 h4         1 U0T       0.055100
     49 H18         -3.5630    -4.4780    22.0810 h1         1 U0T       0.074700
     50 H19         -4.6900    -4.8130    19.5960 hc         1 U0T       0.066200
     51 H20         -5.5870    -5.0800    21.0850 hc         1 U0T       0.066200
     52 H21         -5.8460    -7.2920    20.3810 h1         1 U0T       0.052200
     53 H22         -4.5550    -7.1560    19.1790 h1         1 U0T       0.052200
     54 H23         -4.1700    -6.6200    22.9150 h1         1 U0T       0.055200
     55 H24         -2.5000    -6.9550    22.4250 h1         1 U0T       0.055200
     56 H25          1.0140    -6.7110    16.3490 h1         1 U0T       0.057033
     57 H26          1.9120    -7.0960    14.8770 h1         1 U0T       0.057033
     58 H27          1.8460    -8.2620    16.2140 h1         1 U0T       0.057033
@<TRIPOS>BOND
     1     1     4 1   
     2     1    32 1   
     3     1    33 1   
     4     1    34 1   
     5     2     4 1   
     6     2    10 1   
     7     2    12 1   
     8     3    28 1   
     9     3    29 1   
    10     4     6 1   
    11     4    35 1   
    12     5    16 3   
    13     6     8 1   
    14     6    36 1   
    15     6    37 1   
    16     7    20 1   
    17     7    38 1   
    18     7    39 1   
    19     8    10 1   
    20     8    40 1   
    21     8    41 1   
    22     9    20 ar  
    23     9    21 ar  
    24    10    42 1   
    25    10    43 1   
    26    11    21 1   
    27    11    22 1   
    28    11    44 1   
    29    12    14 2   
    30    12    19 1   
    31    13    15 1   
    32    13    23 1   
    33    13    26 1   
    34    14    16 1   
    35    14    18 1   
    36    15    25 2   
    37    17    21 ar  
    38    17    30 ar  
    39    18    20 ar  
    40    18    30 ar  
    41    19    30 1   
    42    19    31 1   
    43    22    23 2   
    44    22    25 1   
    45    23    24 1   
    46    24    45 1   
    47    24    46 1   
    48    24    47 1   
    49    25    48 1   
    50    26    27 1   
    51    26    29 1   
    52    26    49 1   
    53    27    28 1   
    54    27    50 1   
    55    27    51 1   
    56    28    52 1   
    57    28    53 1   
    58    29    54 1   
    59    29    55 1   
    60    31    56 1   
    61    31    57 1   
    62    31    58 1   
@<TRIPOS>SUBSTRUCTURE
     1 U0T         1 TEMP              0 ****  ****    0 ROOT
