@<TRIPOS>MOLECULE
U0U
   39    40     1     0     0
SMALL
abcg2


@<TRIPOS>ATOM
      1 C4         -18.2390   -10.3990     7.7810 ca         1 U0U      -0.200000
      2 C14        -14.4740   -17.8130     3.6550 ca         1 U0U      -0.124000
      3 C5         -19.2870   -10.3760     6.8700 ca         1 U0U      -0.133000
      4 C6         -20.2010   -11.4170     6.8450 ca         1 U0U      -0.177000
      5 C11        -15.4660   -15.6620     5.1180 ca         1 U0U      -0.130300
      6 C7         -20.0540   -12.4740     7.7350 ca         1 U0U      -0.054000
      7 C8         -19.0120   -12.5360     8.6590 ca         1 U0U      -0.154500
      8 C9         -15.1750   -14.3490     7.2410 c3         1 U0U       0.073000
      9 C10        -15.9760   -14.5230     5.9590 c3         1 U0U       0.203300
     10 C12        -15.7940   -16.9660     5.4790 ca         1 U0U      -0.075000
     11 C13        -15.2990   -18.0370     4.7500 ca         1 U0U      -0.133500
     12 N1         -15.7000   -13.3420     8.1170 ns         1 U0U      -0.497900
     13 C3         -18.1110   -11.4660     8.6660 ca         1 U0U       0.144100
     14 O1         -14.2960   -11.6900     7.4170 o          1 U0U      -0.727100
     15 C1         -15.2120   -12.1020     8.1240 c          1 U0U       0.556100
     16 C2         -15.8130   -11.1550     9.1590 c3         1 U0U       0.098600
     17 O2         -17.1060   -11.4920     9.5940 os         1 U0U      -0.319100
     18 P1         -18.8810   -13.9890     9.8280 p5         1 U0U       1.206000
     19 O3         -19.8940   -14.9990     9.2970 o          1 U0U      -0.885500
     20 O4         -17.4140   -14.4750     9.6740 o          1 U0U      -0.885500
     21 O5         -19.1850   -13.4330    11.2140 o          1 U0U      -0.885500
     22 F1         -17.2930   -14.7400     6.2580 f          1 U0U      -0.101000
     23 F2         -15.9620   -13.3590     5.2460 f          1 U0U      -0.101000
     24 C15        -14.1430   -16.5140     3.2970 ca         1 U0U      -0.133500
     25 C16        -14.6350   -15.4390     4.0260 ca         1 U0U      -0.075000
     26 H1         -17.5400    -9.5720     7.7970 ha         1 U0U       0.078000
     27 H3         -19.3820    -9.5420     6.1850 ha         1 U0U       0.060000
     28 H4         -21.0200   -11.4100     6.1360 ha         1 U0U       0.066000
     29 H5         -20.7570   -13.2960     7.7040 ha         1 U0U       0.131000
     30 H6         -15.1750   -15.3070     7.7660 h1         1 U0U       0.049700
     31 H7         -14.1400   -14.1400     6.9650 h1         1 U0U       0.049700
     32 H8         -16.4340   -17.1570     6.3310 ha         1 U0U       0.139000
     33 H9         -15.5590   -19.0470     5.0370 ha         1 U0U       0.097000
     34 H10        -16.4480   -13.6970     8.8060 hn         1 U0U       0.444500
     35 H11        -15.1770   -11.1850    10.0490 h1         1 U0U       0.037700
     36 H12        -15.7470   -10.1380     8.7640 h1         1 U0U       0.037700
     37 H15        -13.4980   -16.3320     2.4470 ha         1 U0U       0.097000
     38 H16        -14.3620   -14.4330     3.7350 ha         1 U0U       0.139000
     39 H2         -14.0890   -18.6480     3.0860 ha         1 U0U       0.088000
@<TRIPOS>BOND
     1     1     3 ar  
     2     1    13 ar  
     3     1    26 1   
     4     2    11 ar  
     5     2    24 ar  
     6     2    39 1   
     7     3     4 ar  
     8     3    27 1   
     9     4     6 ar  
    10     4    28 1   
    11     5     9 1   
    12     5    10 ar  
    13     5    25 ar  
    14     6     7 ar  
    15     6    29 1   
    16     7    13 ar  
    17     7    18 1   
    18     8     9 1   
    19     8    12 1   
    20     8    30 1   
    21     8    31 1   
    22     9    22 1   
    23     9    23 1   
    24    10    11 ar  
    25    10    32 1   
    26    11    33 1   
    27    12    15 1   
    28    12    34 1   
    29    13    17 1   
    30    14    15 2   
    31    15    16 1   
    32    16    17 1   
    33    16    35 1   
    34    16    36 1   
    35    18    19 1   
    36    18    20 1   
    37    18    21 1   
    38    24    25 ar  
    39    24    37 1   
    40    25    38 1   
@<TRIPOS>SUBSTRUCTURE
     1 U0U         1 TEMP              0 ****  ****    0 ROOT
