@<TRIPOS>MOLECULE
U0U
   39    40     1     0     0
SMALL
No Charge or Current Charge


@<TRIPOS>ATOM
      1 C4         -18.1890   -10.5750     7.5700 ca         1 U0U      -0.200000
      2 C14        -14.6470   -17.6930     3.5020 ca         1 U0U      -0.124000
      3 C5         -19.1980   -10.6860     6.6000 ca         1 U0U      -0.133000
      4 C6         -20.1110   -11.7480     6.6600 ca         1 U0U      -0.177000
      5 C11        -15.5530   -15.6010     5.1750 ca         1 U0U      -0.130300
      6 C7         -20.0170   -12.7030     7.6870 ca         1 U0U      -0.054000
      7 C8         -19.0070   -12.5990     8.6670 ca         1 U0U      -0.154500
      8 C9         -15.1070   -14.3560     7.3400 c3         1 U0U       0.073000
      9 C10        -16.0270   -14.4660     6.0930 c3         1 U0U       0.203300
     10 C12        -16.0840   -16.9040     5.3020 ca         1 U0U      -0.075000
     11 C13        -15.6350   -17.9420     4.4680 ca         1 U0U      -0.133500
     12 N1         -15.5000   -13.3030     8.2880 ns         1 U0U      -0.497900
     13 C3         -18.0930   -11.5280     8.6070 ca         1 U0U       0.144100
     14 O1         -14.2530   -11.6110     7.4150 o          1 U0U      -0.727100
     15 C1         -15.0990   -11.9850     8.2210 c          1 U0U       0.556100
     16 C2         -15.7630   -11.0180     9.2370 c3         1 U0U       0.098600
     17 O2         -17.1080   -11.4270     9.5680 os         1 U0U      -0.319100
     18 P1         -18.8440   -13.8860     9.9630 p5         1 U0U       1.206000
     19 O3         -19.7290   -15.0440     9.6420 o          1 U0U      -0.885500
     20 O4         -17.4130   -14.3110    10.0170 o          1 U0U      -0.885500
     21 O5         -19.2430   -13.2930    11.2740 o          1 U0U      -0.885500
     22 F1         -17.3020   -14.6660     6.5050 f          1 U0U      -0.101000
     23 F2         -16.0360   -13.2820     5.4340 f          1 U0U      -0.101000
     24 C15        -14.1060   -16.4050     3.3730 ca         1 U0U      -0.133500
     25 C16        -14.5530   -15.3640     4.2060 ca         1 U0U      -0.075000
     26 H1         -17.4980    -9.7390     7.5170 ha         1 U0U       0.078000
     27 H3         -19.2720    -9.9480     5.8050 ha         1 U0U       0.060000
     28 H4         -20.8910   -11.8360     5.9080 ha         1 U0U       0.066000
     29 H5         -20.7230   -13.5290     7.7170 ha         1 U0U       0.131000
     30 H6         -15.1210   -15.3160     7.8730 h1         1 U0U       0.049700
     31 H7         -14.0740   -14.1820     7.0130 h1         1 U0U       0.049700
     32 H8         -16.8450   -17.1200     6.0500 ha         1 U0U       0.139000
     33 H9         -16.0520   -18.9410     4.5720 ha         1 U0U       0.097000
     34 H10        -16.2140   -13.5340     8.9950 hn         1 U0U       0.444500
     35 H11        -15.1460   -11.0250    10.1440 h1         1 U0U       0.037700
     36 H12        -15.7440   -10.0020     8.8260 h1         1 U0U       0.037700
     37 H15        -13.3370   -16.2110     2.6280 ha         1 U0U       0.097000
     38 H16        -14.1170   -14.3730     4.0970 ha         1 U0U       0.139000
     39 H2         -14.3000   -18.4980     2.8570 ha         1 U0U       0.088000
@<TRIPOS>BOND
     1     1     3 ar  
     2     1    13 ar  
     3     1    26 1   
     4     2    11 ar  
     5     2    24 ar  
     6     2    39 1   
     7     3     4 ar  
     8     3    27 1   
     9     4     6 ar  
    10     4    28 1   
    11     5     9 1   
    12     5    10 ar  
    13     5    25 ar  
    14     6     7 ar  
    15     6    29 1   
    16     7    13 ar  
    17     7    18 1   
    18     8     9 1   
    19     8    12 1   
    20     8    30 1   
    21     8    31 1   
    22     9    22 1   
    23     9    23 1   
    24    10    11 ar  
    25    10    32 1   
    26    11    33 1   
    27    12    15 1   
    28    12    34 1   
    29    13    17 1   
    30    14    15 2   
    31    15    16 1   
    32    16    17 1   
    33    16    35 1   
    34    16    36 1   
    35    18    19 1   
    36    18    20 1   
    37    18    21 1   
    38    24    25 ar  
    39    24    37 1   
    40    25    38 1   
@<TRIPOS>SUBSTRUCTURE
     1 U0U         1 TEMP              0 ****  ****    0 ROOT
