@<TRIPOS>MOLECULE
U0V
   31    32     1     0     0
SMALL
abcg2


@<TRIPOS>ATOM
      1 C13          4.6420     1.0650    19.9300 ca         1 U0V      -0.041300
      2 C15          6.1940    -0.6410    19.2770 ca         1 U0V       0.334900
      3 C17          6.3190     1.3740    18.2460 ca         1 U0V       0.334900
      4 C02          1.3890     3.9540    25.1270 ca         1 U0V       0.194000
      5 C03          0.3840     4.5210    25.8860 ca         1 U0V      -0.160000
      6 C04         -0.7770     3.7970    26.1070 ca         1 U0V      -0.065000
      7 C05         -0.9130     2.5180    25.5820 ca         1 U0V      -0.134000
      8 C06          0.1170     1.9670    24.8390 ca         1 U0V      -0.038000
      9 C07          1.2870     2.6820    24.5800 ca         1 U0V      -0.194600
     10 C08          2.3640     1.9990    23.7930 c          1 U0V       0.620700
     11 C11          4.0850     2.2170    22.0700 c3         1 U0V       0.106000
     12 C12          3.5280     1.5760    20.7930 c3         1 U0V      -0.063100
     13 C14          5.1320    -0.2290    20.0680 ca         1 U0V      -0.162000
     14 C18          5.2640     1.8800    18.9890 ca         1 U0V      -0.162000
     15 N10          3.0520     2.7550    22.9240 ns         1 U0V      -0.494900
     16 N16          6.7860     0.1370    18.3780 nb         1 U0V      -0.665000
     17 O09          2.5650     0.8020    23.9410 o          1 U0V      -0.597100
     18 H151         6.5790    -1.6500    19.3740 h4         1 U0V       0.018600
     19 H171         6.8080     2.0000    17.5060 h4         1 U0V       0.018600
     20 H031         0.5160     5.5120    26.3010 ha         1 U0V       0.135000
     21 H041        -1.5730     4.2340    26.6950 ha         1 U0V       0.121000
     22 H051        -1.8160     1.9500    25.7560 ha         1 U0V       0.124000
     23 H061         0.0140     0.9660    24.4410 ha         1 U0V       0.136000
     24 H112         4.7570     3.0350    21.8110 h1         1 U0V       0.061200
     25 H111         4.6690     1.4870    22.6300 h1         1 U0V       0.061200
     26 H121         2.8600     0.7570    21.0630 hc         1 U0V       0.059700
     27 H122         2.9380     2.3160    20.2470 hc         1 U0V       0.059700
     28 H141         4.6920    -0.9170    20.7800 ha         1 U0V       0.124000
     29 H181         4.9310     2.8970    18.8270 ha         1 U0V       0.124000
     30 H101         2.7620     3.7030    22.7520 hn         1 U0V       0.321500
     31 F01          2.5110     4.6680    24.9430 f          1 U0V      -0.178000
@<TRIPOS>BOND
     1     1    12 1   
     2     1    13 ar  
     3     1    14 ar  
     4     2    13 ar  
     5     2    16 ar  
     6     2    18 1   
     7     3    14 ar  
     8     3    16 ar  
     9     3    19 1   
    10     4     5 ar  
    11     4     9 ar  
    12     4    31 1   
    13     5     6 ar  
    14     5    20 1   
    15     6     7 ar  
    16     6    21 1   
    17     7     8 ar  
    18     7    22 1   
    19     8     9 ar  
    20     8    23 1   
    21     9    10 1   
    22    10    15 1   
    23    10    17 2   
    24    11    12 1   
    25    11    15 1   
    26    11    24 1   
    27    11    25 1   
    28    12    26 1   
    29    12    27 1   
    30    13    28 1   
    31    14    29 1   
    32    15    30 1   
@<TRIPOS>SUBSTRUCTURE
     1 U0V         1 TEMP              0 ****  ****    0 ROOT
