@<TRIPOS>MOLECULE
U0V
   31    32     1     0     0
SMALL
No Charge or Current Charge


@<TRIPOS>ATOM
      1 C13          4.7510     1.1550    19.9070 ca         1 U0V      -0.041300
      2 C15          6.1300    -0.6740    19.1020 ca         1 U0V       0.334900
      3 C17          6.4530     1.4350    18.1990 ca         1 U0V       0.334900
      4 C02          1.1210     4.0210    24.7120 ca         1 U0V       0.194000
      5 C03          0.1390     4.6390    25.5030 ca         1 U0V      -0.160000
      6 C04         -0.8330     3.8710    26.1610 ca         1 U0V      -0.065000
      7 C05         -0.8210     2.4760    26.0230 ca         1 U0V      -0.134000
      8 C06          0.1590     1.8520    25.2330 ca         1 U0V      -0.038000
      9 C07          1.1500     2.6090    24.5610 ca         1 U0V      -0.194600
     10 C08          2.1750     1.8670    23.7250 c          1 U0V       0.620700
     11 C11          4.1870     2.0530    22.2120 c3         1 U0V       0.106000
     12 C12          3.6560     1.7060    20.8080 c3         1 U0V      -0.063100
     13 C14          5.1100    -0.2040    19.9470 ca         1 U0V      -0.162000
     14 C18          5.4450     1.9850    19.0100 ca         1 U0V      -0.162000
     15 N10          3.1430     2.6050    23.0820 ns         1 U0V      -0.494900
     16 N16          6.7970     0.1260    18.2370 nb         1 U0V      -0.665000
     17 O09          2.1540     0.6480    23.6220 o          1 U0V      -0.597100
     18 H151         6.4230    -1.7230    19.1180 h4         1 U0V       0.018600
     19 H171         7.0030     2.0600    17.4970 h4         1 U0V       0.018600
     20 H031         0.1330     5.7210    25.6060 ha         1 U0V       0.135000
     21 H041        -1.5930     4.3540    26.7730 ha         1 U0V       0.121000
     22 H051        -1.5720     1.8750    26.5300 ha         1 U0V       0.124000
     23 H061         0.1420     0.7660    25.1460 ha         1 U0V       0.136000
     24 H112         4.9930     2.7930    22.1220 h1         1 U0V       0.061200
     25 H111         4.6080     1.1540    22.6810 h1         1 U0V       0.061200
     26 H121         2.8440     0.9740    20.8970 hc         1 U0V       0.059700
     27 H122         3.2130     2.6040    20.3600 hc         1 U0V       0.059700
     28 H141         4.6100    -0.8930    20.6230 ha         1 U0V       0.124000
     29 H181         5.2150     3.0440    18.9360 ha         1 U0V       0.124000
     30 H101         3.1060     3.6090    23.2140 hn         1 U0V       0.321500
     31 F01          2.0240     4.8250    24.1070 f          1 U0V      -0.178000
@<TRIPOS>BOND
     1     1    12 1   
     2     1    13 ar  
     3     1    14 ar  
     4     2    13 ar  
     5     2    16 ar  
     6     2    18 1   
     7     3    14 ar  
     8     3    16 ar  
     9     3    19 1   
    10     4     5 ar  
    11     4     9 ar  
    12     4    31 1   
    13     5     6 ar  
    14     5    20 1   
    15     6     7 ar  
    16     6    21 1   
    17     7     8 ar  
    18     7    22 1   
    19     8     9 ar  
    20     8    23 1   
    21     9    10 1   
    22    10    15 1   
    23    10    17 2   
    24    11    12 1   
    25    11    15 1   
    26    11    24 1   
    27    11    25 1   
    28    12    26 1   
    29    12    27 1   
    30    13    28 1   
    31    14    29 1   
    32    15    30 1   
@<TRIPOS>SUBSTRUCTURE
     1 U0V         1 TEMP              0 ****  ****    0 ROOT
