@<TRIPOS>MOLECULE
U0W
   32    34     1     0     0
SMALL
No Charge or Current Charge


@<TRIPOS>ATOM
      1 OAA         -6.9130    -7.1870     6.4020 o          1 U0W      -0.695500
      2 CAB         -7.2550    -7.7330     5.3600 c          1 U0W       0.629500
      3 OAC         -6.6540    -8.7000     4.9080 o          1 U0W      -0.695500
      4 CAD         -8.4460    -7.2010     4.6160 cc         1 U0W       0.130500
      5 OAH         -9.1920    -6.1160     5.0400 os         1 U0W      -0.196000
      6 CAE         -8.9700    -7.6820     3.4400 cd         1 U0W      -0.226000
      7 CAF        -10.0790    -6.8730     3.1190 cd         1 U0W      -0.173000
      8 CAG        -10.1910    -5.9320     4.1080 cc         1 U0W       0.043300
      9 CAI        -11.1780    -4.8100     4.2930 c3         1 U0W       0.152300
     10 OAJ        -12.4060    -5.3620     4.7990 os         1 U0W      -0.325100
     11 CAK        -13.5090    -4.5780     5.0680 ca         1 U0W       0.162100
     12 CAP        -14.6640    -5.2140     5.5600 ca         1 U0W      -0.131000
     13 CAO        -15.8030    -4.4460     5.8450 ca         1 U0W      -0.057300
     14 CAQ        -17.1240    -4.9460     6.3650 c5         1 U0W      -0.032100
     15 CAR        -17.7600    -3.6000     6.8830 c5         1 U0W      -0.078400
     16 CAS        -17.1270    -2.4560     6.0020 c5         1 U0W      -0.021100
     17 CAN        -15.8040    -3.0810     5.6450 ca         1 U0W      -0.144300
     18 CAM        -14.6680    -2.4210     5.1530 ca         1 U0W      -0.062000
     19 CAL        -13.5130    -3.1750     4.8640 ca         1 U0W      -0.210000
     20 H2          -8.5940    -8.5270     2.8710 ha         1 U0W       0.138000
     21 H3         -10.7270    -6.9720     2.2540 ha         1 U0W       0.110000
     22 H4         -10.7650    -4.0740     4.9950 h1         1 U0W       0.035700
     23 H5         -11.3450    -4.3160     3.3270 h1         1 U0W       0.035700
     24 H6         -14.6700    -6.2890     5.7160 ha         1 U0W       0.134000
     25 H7         -17.7240    -5.3950     5.5660 hc         1 U0W       0.050200
     26 H8         -17.0190    -5.6900     7.1640 hc         1 U0W       0.050200
     27 H9         -17.4950    -3.4460     7.9360 hc         1 U0W       0.038700
     28 H10        -18.8540    -3.6090     6.8340 hc         1 U0W       0.038700
     29 H11        -17.0260    -1.5150     6.5550 hc         1 U0W       0.041200
     30 H12        -17.7290    -2.2570     5.1080 hc         1 U0W       0.041200
     31 H13        -14.6800    -1.3450     4.9960 ha         1 U0W       0.101000
     32 H14        -12.6380    -2.6570     4.4840 ha         1 U0W       0.115000
@<TRIPOS>BOND
     1     1     2 1   
     2     2     3 1   
     3     2     4 1   
     4     4     5 1   
     5     4     6 2   
     6     5     8 1   
     7     6     7 1   
     8     6    20 1   
     9     7     8 2   
    10     7    21 1   
    11     8     9 1   
    12     9    10 1   
    13     9    22 1   
    14     9    23 1   
    15    10    11 1   
    16    11    12 ar  
    17    11    19 ar  
    18    12    13 ar  
    19    12    24 1   
    20    13    14 1   
    21    13    17 ar  
    22    14    15 1   
    23    14    25 1   
    24    14    26 1   
    25    15    16 1   
    26    15    27 1   
    27    15    28 1   
    28    16    17 1   
    29    16    29 1   
    30    16    30 1   
    31    17    18 ar  
    32    18    19 ar  
    33    18    31 1   
    34    19    32 1   
@<TRIPOS>SUBSTRUCTURE
     1 U0W         1 TEMP              0 ****  ****    0 ROOT
