@<TRIPOS>MOLECULE
U0W
   32    34     1     0     0
SMALL
abcg2


@<TRIPOS>ATOM
      1 OAA         -8.2420    -7.7210     6.9190 o          1 U0W      -0.695500
      2 CAB         -7.9760    -8.0080     5.7400 c          1 U0W       0.629500
      3 OAC         -7.1510    -8.8310     5.3050 o          1 U0W      -0.695500
      4 CAD         -8.7450    -7.2720     4.6770 cc         1 U0W       0.130500
      5 OAH         -9.6590    -6.3460     5.0520 os         1 U0W      -0.196000
      6 CAE         -8.7170    -7.3500     3.3200 cd         1 U0W      -0.226000
      7 CAF         -9.6790    -6.4170     2.8390 cd         1 U0W      -0.173000
      8 CAG        -10.2210    -5.8370     3.9400 cc         1 U0W       0.043300
      9 CAI        -11.2550    -4.7920     4.1000 c3         1 U0W       0.152300
     10 OAJ        -12.3860    -5.3780     4.7240 os         1 U0W      -0.325100
     11 CAK        -13.4600    -4.5970     4.9810 ca         1 U0W       0.162100
     12 CAP        -14.5170    -5.2190     5.6550 ca         1 U0W      -0.131000
     13 CAO        -15.6490    -4.4870     5.9540 ca         1 U0W      -0.057300
     14 CAQ        -16.9050    -4.9400     6.6460 c5         1 U0W      -0.032100
     15 CAR        -17.5730    -3.6150     7.0510 c5         1 U0W      -0.078400
     16 CAS        -17.0850    -2.5860     6.0190 c5         1 U0W      -0.021100
     17 CAN        -15.7530    -3.1420     5.5960 ca         1 U0W      -0.144300
     18 CAM        -14.7080    -2.5320     4.9290 ca         1 U0W      -0.062000
     19 CAL        -13.5570    -3.2550     4.6200 ca         1 U0W      -0.210000
     20 H2          -8.0880    -7.9960     2.7310 ha         1 U0W       0.138000
     21 H3          -9.9390    -6.2040     1.8140 ha         1 U0W       0.110000
     22 H4         -10.8800    -3.9560     4.7030 h1         1 U0W       0.035700
     23 H5         -11.5050    -4.3990     3.1090 h1         1 U0W       0.035700
     24 H6         -14.4310    -6.2620     5.9370 ha         1 U0W       0.134000
     25 H7         -17.5350    -5.4990     5.9470 hc         1 U0W       0.050200
     26 H8         -16.7150    -5.5990     7.4950 hc         1 U0W       0.050200
     27 H9         -17.2260    -3.3250     8.0450 hc         1 U0W       0.038700
     28 H10        -18.6600    -3.6880     7.0950 hc         1 U0W       0.038700
     29 H11        -17.0230    -1.5750     6.4260 hc         1 U0W       0.041200
     30 H12        -17.7660    -2.5390     5.1620 hc         1 U0W       0.041200
     31 H13        -14.7670    -1.4880     4.6420 ha         1 U0W       0.101000
     32 H14        -12.7520    -2.7520     4.1000 ha         1 U0W       0.115000
@<TRIPOS>BOND
     1     1     2 1   
     2     2     3 1   
     3     2     4 1   
     4     4     5 1   
     5     4     6 2   
     6     5     8 1   
     7     6     7 1   
     8     6    20 1   
     9     7     8 2   
    10     7    21 1   
    11     8     9 1   
    12     9    10 1   
    13     9    22 1   
    14     9    23 1   
    15    10    11 1   
    16    11    12 ar  
    17    11    19 ar  
    18    12    13 ar  
    19    12    24 1   
    20    13    14 1   
    21    13    17 ar  
    22    14    15 1   
    23    14    25 1   
    24    14    26 1   
    25    15    16 1   
    26    15    27 1   
    27    15    28 1   
    28    16    17 1   
    29    16    29 1   
    30    16    30 1   
    31    17    18 ar  
    32    18    19 ar  
    33    18    31 1   
    34    19    32 1   
@<TRIPOS>SUBSTRUCTURE
     1 U0W         1 TEMP              0 ****  ****    0 ROOT
