@<TRIPOS>MOLECULE
U0X
   43    44     1     0     0
SMALL
No Charge or Current Charge


@<TRIPOS>ATOM
      1 C10          6.4210   -13.2220   -21.6790 c6         1 U0X       0.132300
      2 C13          6.2830   -15.8830   -20.9310 c6         1 U0X       0.116800
      3 C15          6.4540   -17.3870   -20.5800 c3         1 U0X       0.191100
      4 C02          8.2570   -11.1610   -17.9560 c6         1 U0X       0.116800
      5 C03          7.4910   -10.8880   -16.6230 c6         1 U0X       0.134800
      6 C04          6.2360   -11.8080   -16.5690 c6         1 U0X       0.142800
      7 C05          6.6520   -13.2980   -16.7230 c6         1 U0X       0.132300
      8 C06          7.4740   -13.4850   -18.0480 c6         1 U0X       0.368300
      9 C09          7.2790   -13.7040   -20.4490 c6         1 U0X       0.368300
     10 C11          6.6220   -14.1970   -22.8700 c6         1 U0X       0.142800
     11 C12          6.1680   -15.6460   -22.4750 c6         1 U0X       0.134800
     12 F16          6.5010   -17.5960   -19.2380 f          1 U0X      -0.263000
     13 O07          8.5970   -12.5700   -18.0640 os         1 U0X      -0.459500
     14 O08          6.6700   -13.2600   -19.2240 os         1 U0X      -0.497000
     15 O14          7.4220   -15.1490   -20.4230 os         1 U0X      -0.459500
     16 O17          4.8190   -15.8640   -22.9170 oh         1 U0X      -0.712000
     17 O18          5.8950   -13.7430   -24.0320 oh         1 U0X      -0.656000
     18 O19          6.6860   -11.8450   -22.0470 oh         1 U0X      -0.714000
     19 O20          5.4770   -14.1400   -16.6500 oh         1 U0X      -0.714000
     20 O21          5.5170   -11.6090   -15.3370 oh         1 U0X      -0.656000
     21 O22          7.0890    -9.5060   -16.5040 oh         1 U0X      -0.712000
     22 H1           5.3650   -13.3050   -21.3800 h1         1 U0X       0.072700
     23 H2           5.3750   -15.5200   -20.4260 h1         1 U0X       0.071700
     24 H3           5.6080   -17.9540   -20.9890 h1         1 U0X       0.057200
     25 H4           7.3810   -17.7680   -21.0270 h1         1 U0X       0.057200
     26 H8           8.1500   -11.1630   -15.7840 h1         1 U0X       0.061700
     27 H9           5.5890   -11.5430   -17.4200 h1         1 U0X       0.061700
     28 H10          7.3290   -13.5440   -15.8910 h1         1 U0X       0.072700
     29 H11          7.8510   -14.5190   -18.0580 h2         1 U0X       0.101200
     30 H12          8.2830   -13.2600   -20.5360 h2         1 U0X       0.101200
     31 H13          7.6990   -14.2290   -23.0930 h1         1 U0X       0.061700
     32 H14          6.8420   -16.3480   -22.9890 h1         1 U0X       0.061700
     33 H15          4.7120   -15.1730   -23.6210 ho         1 U0X       0.508500
     34 H16          6.0260   -12.7650   -24.0420 ho         1 U0X       0.456000
     35 H17          6.3820   -11.2850   -21.2930 ho         1 U0X       0.518500
     36 H18          4.8900   -13.6870   -15.9970 ho         1 U0X       0.518500
     37 H19          5.5150   -10.6340   -15.1990 ho         1 U0X       0.456000
     38 H20          7.8430    -9.0120   -16.1010 ho         1 U0X       0.508500
     39 H7           7.6130   -10.8870   -18.8050 h1         1 U0X       0.071700
     40 C01          9.5780   -10.3470   -18.0860 c3         1 U0X       0.191100
     41 F23         10.4250   -10.5630   -17.0460 f          1 U0X      -0.263000
     42 H5          10.0870   -10.6290   -19.0170 h1         1 U0X       0.057200
     43 H6           9.3470    -9.2750   -18.1330 h1         1 U0X       0.057200
@<TRIPOS>BOND
     1     1     9 1   
     2     1    10 1   
     3     1    18 1   
     4     1    22 1   
     5     2     3 1   
     6     2    11 1   
     7     2    15 1   
     8     2    23 1   
     9     3    12 1   
    10     3    24 1   
    11     3    25 1   
    12     4     5 1   
    13     4    13 1   
    14     4    39 1   
    15     4    40 1   
    16     5     6 1   
    17     5    21 1   
    18     5    26 1   
    19     6     7 1   
    20     6    20 1   
    21     6    27 1   
    22     7     8 1   
    23     7    19 1   
    24     7    28 1   
    25     8    13 1   
    26     8    14 1   
    27     8    29 1   
    28     9    14 1   
    29     9    15 1   
    30     9    30 1   
    31    10    11 1   
    32    10    17 1   
    33    10    31 1   
    34    11    16 1   
    35    11    32 1   
    36    16    33 1   
    37    17    34 1   
    38    18    35 1   
    39    19    36 1   
    40    20    37 1   
    41    21    38 1   
    42    40    41 1   
    43    40    42 1   
    44    40    43 1   
@<TRIPOS>SUBSTRUCTURE
     1 U0X         1 TEMP              0 ****  ****    0 ROOT
