@<TRIPOS>MOLECULE
U0X
   43    44     1     0     0
SMALL
abcg2


@<TRIPOS>ATOM
      1 C10          6.7070   -13.1350   -21.5610 c6         1 U0X       0.132300
      2 C13          6.2030   -15.7390   -20.8750 c6         1 U0X       0.116800
      3 C15          6.2660   -17.2320   -20.7120 c3         1 U0X       0.191100
      4 C02          8.2890   -11.1440   -18.0450 c6         1 U0X       0.116800
      5 C03          7.4210   -10.9100   -16.8070 c6         1 U0X       0.134800
      6 C04          6.3140   -11.9570   -16.7330 c6         1 U0X       0.142800
      7 C05          6.9100   -13.3540   -16.8200 c6         1 U0X       0.132300
      8 C06          7.7620   -13.4790   -18.0770 c6         1 U0X       0.368300
      9 C09          7.4880   -13.7960   -20.4190 c6         1 U0X       0.368300
     10 C11          6.6320   -14.1080   -22.7310 c6         1 U0X       0.142800
     11 C12          5.8190   -15.3430   -22.3250 c6         1 U0X       0.134800
     12 F16          6.3780   -17.5660   -19.3510 f          1 U0X      -0.263000
     13 O07          8.7740   -12.4920   -18.0680 os         1 U0X      -0.459500
     14 O08          6.9250   -13.3460   -19.2040 os         1 U0X      -0.497000
     15 O14          7.4760   -15.2050   -20.5030 os         1 U0X      -0.459500
     16 O17          4.4290   -15.0420   -22.3950 oh         1 U0X      -0.712000
     17 O18          6.0600   -13.5080   -23.8780 oh         1 U0X      -0.656000
     18 O19          7.3620   -11.9510   -22.0060 oh         1 U0X      -0.714000
     19 O20          5.9130   -14.3620   -16.8260 oh         1 U0X      -0.714000
     20 O21          5.6080   -11.8710   -15.4920 oh         1 U0X      -0.656000
     21 O22          6.8870    -9.5930   -16.9070 oh         1 U0X      -0.712000
     22 H1           5.6960   -12.8980   -21.2200 h1         1 U0X       0.072700
     23 H2           5.4310   -15.3370   -20.2110 h1         1 U0X       0.071700
     24 H3           5.3540   -17.6950   -21.0910 h1         1 U0X       0.057200
     25 H4           7.1370   -17.6450   -21.2240 h1         1 U0X       0.057200
     26 H8           8.0440   -11.0000   -15.9120 h1         1 U0X       0.061700
     27 H9           5.6220   -11.8070   -17.5650 h1         1 U0X       0.061700
     28 H10          7.5850   -13.4980   -15.9680 h1         1 U0X       0.072700
     29 H11          8.2840   -14.4360   -18.0990 h2         1 U0X       0.101200
     30 H12          8.5390   -13.5090   -20.4800 h2         1 U0X       0.101200
     31 H13          7.6490   -14.4480   -22.9560 h1         1 U0X       0.061700
     32 H14          6.0530   -16.1540   -23.0210 h1         1 U0X       0.061700
     33 H15          3.9370   -15.8720   -22.3890 ho         1 U0X       0.508500
     34 H16          6.4980   -12.6520   -23.9860 ho         1 U0X       0.456000
     35 H17          7.0660   -11.2070   -21.4670 ho         1 U0X       0.518500
     36 H18          5.3320   -14.1860   -16.0730 ho         1 U0X       0.518500
     37 H19          4.8290   -11.3160   -15.6110 ho         1 U0X       0.456000
     38 H20          6.4970    -9.3600   -16.0550 ho         1 U0X       0.508500
     39 H7           7.6860   -10.9510   -18.9390 h1         1 U0X       0.071700
     40 C01          9.4840   -10.2310   -18.1250 c3         1 U0X       0.191100
     41 F23         10.2750   -10.3340   -16.9630 f          1 U0X      -0.263000
     42 H5          10.1140   -10.5060   -18.9710 h1         1 U0X       0.057200
     43 H6           9.1640    -9.1940   -18.2110 h1         1 U0X       0.057200
@<TRIPOS>BOND
     1     1     9 1   
     2     1    10 1   
     3     1    18 1   
     4     1    22 1   
     5     2     3 1   
     6     2    11 1   
     7     2    15 1   
     8     2    23 1   
     9     3    12 1   
    10     3    24 1   
    11     3    25 1   
    12     4     5 1   
    13     4    13 1   
    14     4    39 1   
    15     4    40 1   
    16     5     6 1   
    17     5    21 1   
    18     5    26 1   
    19     6     7 1   
    20     6    20 1   
    21     6    27 1   
    22     7     8 1   
    23     7    19 1   
    24     7    28 1   
    25     8    13 1   
    26     8    14 1   
    27     8    29 1   
    28     9    14 1   
    29     9    15 1   
    30     9    30 1   
    31    10    11 1   
    32    10    17 1   
    33    10    31 1   
    34    11    16 1   
    35    11    32 1   
    36    16    33 1   
    37    17    34 1   
    38    18    35 1   
    39    19    36 1   
    40    20    37 1   
    41    21    38 1   
    42    40    41 1   
    43    40    42 1   
    44    40    43 1   
@<TRIPOS>SUBSTRUCTURE
     1 U0X         1 TEMP              0 ****  ****    0 ROOT
