@<TRIPOS>MOLECULE
U0Z
   23    25     1     0     0
SMALL
No Charge or Current Charge


@<TRIPOS>ATOM
      1 C1          15.2030   -24.2580    17.3600 ca         1 U0Z       0.027800
      2 C2          14.0720   -23.7870    17.9960 ca         1 U0Z      -0.164000
      3 C7          15.9910   -22.2580    18.1700 cc         1 U0Z       0.573700
      4 C8          17.5600   -23.7500    16.7610 c6         1 U0Z       0.089600
      5 C9          16.4950   -25.9660    16.0100 c6         1 U0Z      -0.024100
      6 C10         14.0230   -26.2520    16.6700 ca         1 U0Z      -0.073000
      7 C11         12.8630   -25.7700    17.3190 ca         1 U0Z      -0.136000
      8 C13         17.7420   -25.2870    16.6340 c6         1 U0Z      -0.094400
      9 N3          16.2900   -23.4120    17.4510 na         1 U0Z      -0.233600
     10 C4          15.2110   -25.4920    16.6920 ca         1 U0Z      -0.104300
     11 S5          14.3160   -22.2060    18.7750 ss         1 U0Z      -0.108200
     12 C6          12.8810   -24.5300    17.9900 ca         1 U0Z      -0.047000
     13 N12         16.8660   -21.3220    18.3520 n2         1 U0Z      -0.828100
     14 H1          18.4090   -23.3230    17.3130 h1         1 U0Z       0.063200
     15 H2          17.5470   -23.2950    15.7610 h1         1 U0Z       0.063200
     16 H3          16.4420   -25.7290    14.9380 hc         1 U0Z       0.054700
     17 H4          16.5880   -27.0580    16.0850 hc         1 U0Z       0.054700
     18 H5          13.9970   -27.2110    16.1570 ha         1 U0Z       0.115000
     19 H6          11.9500   -26.3610    17.3010 ha         1 U0Z       0.118000
     20 H7          17.9190   -25.7090    17.6330 hc         1 U0Z       0.055700
     21 H8          18.6360   -25.5130    16.0370 hc         1 U0Z       0.055700
     22 H9          11.9900   -24.1570    18.4910 ha         1 U0Z       0.125000
     23 H10         16.4270   -20.5680    18.9010 hn         1 U0Z       0.414400
@<TRIPOS>BOND
     1     1     2 ar  
     2     1     9 1   
     3     1    10 ar  
     4     2    11 1   
     5     2    12 ar  
     6     3     9 1   
     7     3    11 1   
     8     3    13 2   
     9     4     8 1   
    10     4     9 1   
    11     4    14 1   
    12     4    15 1   
    13     5     8 1   
    14     5    10 1   
    15     5    16 1   
    16     5    17 1   
    17     6     7 ar  
    18     6    10 ar  
    19     6    18 1   
    20     7    12 ar  
    21     7    19 1   
    22     8    20 1   
    23     8    21 1   
    24    12    22 1   
    25    13    23 1   
@<TRIPOS>SUBSTRUCTURE
     1 U0Z         1 TEMP              0 ****  ****    0 ROOT
