@<TRIPOS>MOLECULE
U0Z
   23    25     1     0     0
SMALL
abcg2


@<TRIPOS>ATOM
      1 C1          15.1860   -24.2840    17.3480 ca         1 U0Z       0.027800
      2 C2          14.0450   -23.8230    17.9970 ca         1 U0Z      -0.164000
      3 C7          16.0440   -22.2650    18.1230 cc         1 U0Z       0.573700
      4 C8          17.5240   -23.7500    16.7940 c6         1 U0Z       0.089600
      5 C9          16.4810   -25.9120    15.9990 c6         1 U0Z      -0.024100
      6 C10         14.0310   -26.2440    16.6820 ca         1 U0Z      -0.073000
      7 C11         12.8850   -25.7890    17.3270 ca         1 U0Z      -0.136000
      8 C13         17.6820   -25.2610    16.6810 c6         1 U0Z      -0.094400
      9 N3          16.2630   -23.4330    17.4430 na         1 U0Z      -0.233600
     10 C4          15.2050   -25.4980    16.6750 ca         1 U0Z      -0.104300
     11 S5          14.3650   -22.2690    18.7330 ss         1 U0Z      -0.108200
     12 C6          12.8800   -24.5680    17.9950 ca         1 U0Z      -0.047000
     13 N12         16.9200   -21.3610    18.2650 n2         1 U0Z      -0.828100
     14 H1          18.3330   -23.3220    17.3840 h1         1 U0Z       0.063200
     15 H2          17.5550   -23.2850    15.8050 h1         1 U0Z       0.063200
     16 H3          16.4530   -25.6170    14.9450 hc         1 U0Z       0.054700
     17 H4          16.5800   -26.9990    16.0130 hc         1 U0Z       0.054700
     18 H5          14.0140   -27.2000    16.1720 ha         1 U0Z       0.115000
     19 H6          11.9870   -26.3920    17.3140 ha         1 U0Z       0.118000
     20 H7          17.8160   -25.6870    17.6780 hc         1 U0Z       0.055700
     21 H8          18.5930   -25.4690    16.1210 hc         1 U0Z       0.055700
     22 H9          11.9890   -24.2130    18.4960 ha         1 U0Z       0.125000
     23 H10         16.5880   -20.5730    18.8060 hn         1 U0Z       0.414400
@<TRIPOS>BOND
     1     1     2 ar  
     2     1     9 1   
     3     1    10 ar  
     4     2    11 1   
     5     2    12 ar  
     6     3     9 1   
     7     3    11 1   
     8     3    13 2   
     9     4     8 1   
    10     4     9 1   
    11     4    14 1   
    12     4    15 1   
    13     5     8 1   
    14     5    10 1   
    15     5    16 1   
    16     5    17 1   
    17     6     7 ar  
    18     6    10 ar  
    19     6    18 1   
    20     7    12 ar  
    21     7    19 1   
    22     8    20 1   
    23     8    21 1   
    24    12    22 1   
    25    13    23 1   
@<TRIPOS>SUBSTRUCTURE
     1 U0Z         1 TEMP              0 ****  ****    0 ROOT
