@<TRIPOS>MOLECULE
U11
   47    47     1     0     0
SMALL
No Charge or Current Charge


@<TRIPOS>ATOM
      1 F29         -1.9600     4.1870     0.2440 f          1 U11      -0.114000
      2 C9          -2.7850     3.3420    -0.4160 c3         1 U11       0.356300
      3 F30         -2.5220     3.5000    -1.7340 f          1 U11      -0.114000
      4 F31         -4.0460     3.7800    -0.2090 f          1 U11      -0.114000
      5 C5          -2.6180     1.8880     0.0420 ca         1 U11      -0.196300
      6 C2          -2.8600     0.8220    -0.8500 ca         1 U11      -0.056500
      7 C4          -2.7150    -0.5110    -0.4270 ca         1 U11      -0.107500
      8 C6          -2.2440     1.5920     1.3700 ca         1 U11      -0.056500
      9 C3          -2.1000     0.2590     1.7910 ca         1 U11      -0.107500
     10 C7          -2.3300    -0.8040     0.8970 ca         1 U11      -0.081300
     11 C11         -2.1510    -2.2460     1.3670 c3         1 U11       0.191800
     12 N24         -3.4340    -2.9990     1.2960 n8         1 U11      -1.002200
     13 C23         -1.0440    -3.0050     0.5860 c3         1 U11       0.102300
     14 O27         -1.3120    -4.4140     0.7650 oh         1 U11      -0.653000
     15 C25          0.3780    -2.5670     1.0560 c          1 U11       0.585100
     16 O31          0.7920    -2.7400     2.1980 o          1 U11      -0.612100
     17 N32          1.1530    -1.9530     0.0910 ns         1 U11      -0.483900
     18 C33          2.5240    -1.4370     0.2990 c3         1 U11       0.038700
     19 C37          3.5480    -2.5970     0.3200 c3         1 U11      -0.111100
     20 C36          2.8700    -0.3750    -0.7860 c          1 U11       0.594100
     21 O41          2.1670    -0.1660    -1.7680 o          1 U11      -0.614100
     22 N42          4.0310     0.3350    -0.5730 ns         1 U11      -0.496900
     23 C43          4.5460     1.3890    -1.4790 c3         1 U11       0.039000
     24 C47          5.8750     1.9920    -0.9800 c          1 U11       0.582100
     25 O60          6.4470     1.6430     0.0470 o          1 U11      -0.490000
     26 O61          6.3370     2.9650    -1.8290 os         1 U11      -0.435100
     27 C62          7.5740     3.6240    -1.4960 c3         1 U11       0.151900
     28 H2          -3.1640     1.0190    -1.8770 ha         1 U11       0.130500
     29 H4          -2.9050    -1.3130    -1.1360 ha         1 U11       0.117500
     30 H6          -2.0650     2.3940     2.0840 ha         1 U11       0.130500
     31 H3          -1.8050     0.0570     2.8180 ha         1 U11       0.117500
     32 H11         -1.8490    -2.2340     2.4260 h1         1 U11       0.071700
     33 H241        -4.0990    -2.5670     1.9510 hn         1 U11       0.410000
     34 H242        -3.8730    -2.8130     0.3850 hn         1 U11       0.410000
     35 H23         -1.1340    -2.7560    -0.4790 h1         1 U11       0.073700
     36 HO27        -2.2640    -4.3860     1.0540 ho         1 U11       0.478000
     37 HN32         0.7340    -1.8230    -0.8250 hn         1 U11       0.340500
     38 H33          2.5580    -0.9200     1.2670 h1         1 U11       0.087700
     39 H371         4.5610    -2.2250     0.5130 hc         1 U11       0.053033
     40 H372         3.3030    -3.3210     1.1060 hc         1 U11       0.053033
     41 H373         3.5550    -3.1250    -0.6420 hc         1 U11       0.053033
     42 HN42         4.5640     0.1130     0.2630 hn         1 U11       0.345500
     43 H431         3.8130     2.2020    -1.5600 h1         1 U11       0.085700
     44 H432         4.7150     0.9720    -2.4790 h1         1 U11       0.085700
     45 H621         7.8240     4.3750    -2.2560 h1         1 U11       0.053700
     46 H622         7.4990     4.1340    -0.5270 h1         1 U11       0.053700
     47 H623         8.4010     2.9030    -1.4470 h1         1 U11       0.053700
@<TRIPOS>BOND
     1     1     2 1   
     2     2     3 1   
     3     2     4 1   
     4     2     5 1   
     5     5     6 ar  
     6     5     8 ar  
     7     6     7 ar  
     8     6    28 1   
     9     7    10 ar  
    10     7    29 1   
    11     8     9 ar  
    12     8    30 1   
    13     9    10 ar  
    14     9    31 1   
    15    10    11 1   
    16    11    12 1   
    17    11    13 1   
    18    11    32 1   
    19    12    33 1   
    20    12    34 1   
    21    13    14 1   
    22    13    15 1   
    23    13    35 1   
    24    14    36 1   
    25    15    16 2   
    26    15    17 1   
    27    17    18 1   
    28    17    37 1   
    29    18    19 1   
    30    18    20 1   
    31    18    38 1   
    32    19    39 1   
    33    19    40 1   
    34    19    41 1   
    35    20    21 2   
    36    20    22 1   
    37    22    23 1   
    38    22    42 1   
    39    23    24 1   
    40    23    43 1   
    41    23    44 1   
    42    24    25 2   
    43    24    26 1   
    44    26    27 1   
    45    27    45 1   
    46    27    46 1   
    47    27    47 1   
@<TRIPOS>SUBSTRUCTURE
     1 U11         1 TEMP              0 ****  ****    0 ROOT
