@<TRIPOS>MOLECULE
U11
   47    47     1     0     0
SMALL
abcg2


@<TRIPOS>ATOM
      1 F29         -6.7020     2.5600    -0.6380 f          1 U11      -0.114000
      2 C9          -6.6220     1.2880    -0.2270 c3         1 U11       0.356300
      3 F30         -7.1840     0.5410    -1.1920 f          1 U11      -0.114000
      4 F31         -7.4070     1.1740     0.8510 f          1 U11      -0.114000
      5 C5          -5.2130     0.8700     0.0440 ca         1 U11      -0.196300
      6 C2          -4.9260    -0.0330     1.0600 ca         1 U11      -0.056500
      7 C4          -3.6190    -0.4420     1.2770 ca         1 U11      -0.107500
      8 C6          -4.1840     1.3570    -0.7540 ca         1 U11      -0.056500
      9 C3          -2.8830     0.9400    -0.5280 ca         1 U11      -0.107500
     10 C7          -2.5810     0.0370     0.4880 ca         1 U11      -0.081300
     11 C11         -1.1450    -0.4070     0.6850 c3         1 U11       0.191800
     12 N24         -0.7660    -0.8070     2.0210 n8         1 U11      -1.002200
     13 C23         -0.8340    -1.5620    -0.2870 c3         1 U11       0.102300
     14 O27         -1.6460    -2.6660    -0.0230 oh         1 U11      -0.653000
     15 C25          0.6330    -1.9730    -0.1480 c          1 U11       0.585100
     16 O31          0.9210    -3.0610     0.3330 o          1 U11      -0.612100
     17 N32          1.5300    -1.0840    -0.5760 ns         1 U11      -0.483900
     18 C33          2.9560    -1.2960    -0.5090 c3         1 U11       0.038700
     19 C37          3.4620    -2.2030    -1.6340 c3         1 U11      -0.111100
     20 C36          3.6330     0.0670    -0.6050 c          1 U11       0.594100
     21 O41          3.0780     1.0300    -1.1140 o          1 U11      -0.614100
     22 N42          4.8840     0.1040    -0.1370 ns         1 U11      -0.496900
     23 C43          5.7000     1.2840    -0.2350 c3         1 U11       0.039000
     24 C47          7.0960     0.9880     0.2540 c          1 U11       0.582100
     25 O60          7.4590    -0.0790     0.6800 o          1 U11      -0.490000
     26 O61          7.8610     2.0560     0.1530 os         1 U11      -0.435100
     27 C62          9.2220     1.9420     0.5810 c3         1 U11       0.151900
     28 H2          -5.7100    -0.4240     1.6960 ha         1 U11       0.130500
     29 H4          -3.4200    -1.1330     2.0860 ha         1 U11       0.117500
     30 H6          -4.3790     2.0650    -1.5490 ha         1 U11       0.130500
     31 H3          -2.0870     1.3360    -1.1480 ha         1 U11       0.117500
     32 H11         -0.5090     0.4390     0.4000 h1         1 U11       0.071700
     33 H241        -0.9850    -0.0750     2.6840 hn         1 U11       0.410000
     34 H242        -1.2800    -1.6290     2.3130 hn         1 U11       0.410000
     35 H23         -1.0080    -1.2150    -1.3130 h1         1 U11       0.073700
     36 HO27        -1.0720    -3.3520     0.3490 ho         1 U11       0.478000
     37 HN32         1.2230    -0.2350    -1.0300 hn         1 U11       0.340500
     38 H33          3.2010    -1.7490     0.4550 h1         1 U11       0.087700
     39 H371         4.5370    -2.3630    -1.5550 hc         1 U11       0.053033
     40 H372         2.9750    -3.1750    -1.5790 hc         1 U11       0.053033
     41 H373         3.2480    -1.7650    -2.6090 hc         1 U11       0.053033
     42 HN42         5.2820    -0.7100     0.3060 hn         1 U11       0.345500
     43 H431         5.2880     2.1080     0.3560 h1         1 U11       0.085700
     44 H432         5.7570     1.6390    -1.2680 h1         1 U11       0.085700
     45 H621         9.6660     2.9190     0.4150 h1         1 U11       0.053700
     46 H622         9.2840     1.6890     1.6380 h1         1 U11       0.053700
     47 H623         9.7580     1.1960    -0.0040 h1         1 U11       0.053700
@<TRIPOS>BOND
     1     1     2 1   
     2     2     3 1   
     3     2     4 1   
     4     2     5 1   
     5     5     6 ar  
     6     5     8 ar  
     7     6     7 ar  
     8     6    28 1   
     9     7    10 ar  
    10     7    29 1   
    11     8     9 ar  
    12     8    30 1   
    13     9    10 ar  
    14     9    31 1   
    15    10    11 1   
    16    11    12 1   
    17    11    13 1   
    18    11    32 1   
    19    12    33 1   
    20    12    34 1   
    21    13    14 1   
    22    13    15 1   
    23    13    35 1   
    24    14    36 1   
    25    15    16 2   
    26    15    17 1   
    27    17    18 1   
    28    17    37 1   
    29    18    19 1   
    30    18    20 1   
    31    18    38 1   
    32    19    39 1   
    33    19    40 1   
    34    19    41 1   
    35    20    21 2   
    36    20    22 1   
    37    22    23 1   
    38    22    42 1   
    39    23    24 1   
    40    23    43 1   
    41    23    44 1   
    42    24    25 2   
    43    24    26 1   
    44    26    27 1   
    45    27    45 1   
    46    27    46 1   
    47    27    47 1   
@<TRIPOS>SUBSTRUCTURE
     1 U11         1 TEMP              0 ****  ****    0 ROOT
