@<TRIPOS>MOLECULE
U12
   26    27     1     0     0
SMALL
No Charge or Current Charge


@<TRIPOS>ATOM
      1 F3           3.7490     0.0740     2.3780 f          1 U12      -0.114000
      2 C10          3.7700     0.3600     1.0570 c3         1 U12       0.357300
      3 F1           5.0140     0.0720     0.6100 f          1 U12      -0.114000
      4 F2           3.6190     1.6990     0.9400 f          1 U12      -0.114000
      5 C8           2.6830    -0.4140     0.3030 ca         1 U12      -0.200300
      6 C5           2.9610    -1.6730    -0.2750 ca         1 U12      -0.055000
      7 C9           1.9560    -2.3800    -0.9560 ca         1 U12      -0.118000
      8 C6           0.6620    -1.8420    -1.0630 ca         1 U12      -0.069000
      9 C7           1.3750     0.1120     0.1970 ca         1 U12      -0.042000
     10 C4           0.3660    -0.5960    -0.4830 ca         1 U12       0.106400
     11 N6          -0.9300    -0.0570    -0.5890 ne         1 U12      -0.309400
     12 N3          -1.7230    -0.3460     0.3550 nf         1 U12      -0.099600
     13 C1          -3.0100     0.1790     0.2600 cd         1 U12      -0.202000
     14 C3          -4.1630    -0.2640     0.9390 cd         1 U12       0.595600
     15 N5          -4.2090    -1.2500     1.7630 n2         1 U12      -0.639100
     16 N4          -5.2670     0.4880     0.6200 nd         1 U12      -0.246300
     17 N1          -4.8560     1.4030    -0.2370 nc         1 U12      -0.165600
     18 C2          -3.5110     1.2300    -0.4550 cc         1 U12       0.324600
     19 N2          -2.8760     2.0850    -1.2980 nv         1 U12      -0.886000
     20 H5           3.9560    -2.1100    -0.1970 ha         1 U12       0.132000
     21 H9           2.1800    -3.3470    -1.4010 ha         1 U12       0.124000
     22 H6          -0.1130    -2.3920    -1.5910 ha         1 U12       0.144000
     23 H7           1.1330     1.0730     0.6450 ha         1 U12       0.130000
     24 HN52        -5.1710    -1.3500     2.1080 hn         1 U12       0.409400
     25 HN21        -1.9410     1.8290    -1.6070 hn         1 U12       0.525500
     26 HN22        -3.4250     2.6530    -1.9370 hn         1 U12       0.525500
@<TRIPOS>BOND
     1     1     2 1   
     2     2     3 1   
     3     2     4 1   
     4     2     5 1   
     5     5     6 ar  
     6     5     9 ar  
     7     6     7 ar  
     8     6    20 1   
     9     7     8 ar  
    10     7    21 1   
    11     8    10 ar  
    12     8    22 1   
    13     9    10 ar  
    14     9    23 1   
    15    10    11 1   
    16    11    12 2   
    17    12    13 1   
    18    13    14 1   
    19    13    18 2   
    20    14    15 2   
    21    14    16 1   
    22    15    24 1   
    23    16    17 2   
    24    17    18 1   
    25    18    19 1   
    26    19    25 1   
    27    19    26 1   
@<TRIPOS>SUBSTRUCTURE
     1 U12         1 TEMP              0 ****  ****    0 ROOT
