@<TRIPOS>MOLECULE
U12
   26    27     1     0     0
SMALL
bcc


@<TRIPOS>ATOM
      1 F3           4.0170     1.2730     1.1540 f          1 U12      -0.235300
      2 C10          3.9370     0.5830     0.0060 c3         1 U12       0.721200
      3 F1           5.0950    -0.0650    -0.1410 f          1 U12      -0.235300
      4 F2           3.8670     1.4920    -0.9770 f          1 U12      -0.235300
      5 C8           2.7550    -0.3360    -0.0030 ca         1 U12      -0.200300
      6 C5           2.9130    -1.7130     0.0070 ca         1 U12      -0.073000
      7 C9           1.7850    -2.5280     0.0120 ca         1 U12      -0.136000
      8 C6           0.5160    -1.9820     0.0090 ca         1 U12      -0.087000
      9 C7           1.4830     0.2240    -0.0030 ca         1 U12      -0.060000
     10 C4           0.3580    -0.5920     0.0020 ca         1 U12       0.106400
     11 N6          -0.8750     0.0760    -0.0010 ne         1 U12      -0.309400
     12 N3          -1.8800    -0.6720     0.0070 nf         1 U12      -0.099600
     13 C1          -3.0720    -0.0280     0.0040 cd         1 U12      -0.202000
     14 C3          -4.3660    -0.6720     0.0150 cd         1 U12       0.595600
     15 N5          -4.6790    -1.8910     0.0280 n2         1 U12      -0.639100
     16 N4          -5.3550     0.3950     0.0060 nd         1 U12      -0.246300
     17 N1          -4.7890     1.4940    -0.0070 nc         1 U12      -0.165600
     18 C2          -3.3630     1.3170    -0.0100 cc         1 U12       0.324600
     19 N2          -2.6050     2.3830    -0.0250 nv         1 U12      -0.775600
     20 H5           3.8950    -2.1660     0.0120 ha         1 U12       0.150000
     21 H9           1.9060    -3.6030     0.0180 ha         1 U12       0.142000
     22 H6          -0.3510    -2.6270     0.0120 ha         1 U12       0.162000
     23 H7           1.3400     1.2980    -0.0100 ha         1 U12       0.148000
     24 HN52        -5.6910    -2.0050     0.0320 hn         1 U12       0.409400
     25 HN21        -1.6020     2.2750    -0.0290 hn         1 U12       0.470300
     26 HN22        -3.0080     3.3080    -0.0330 hn         1 U12       0.470300
@<TRIPOS>BOND
     1     1     2 1   
     2     2     3 1   
     3     2     4 1   
     4     2     5 1   
     5     5     6 ar  
     6     5     9 ar  
     7     6     7 ar  
     8     6    20 1   
     9     7     8 ar  
    10     7    21 1   
    11     8    10 ar  
    12     8    22 1   
    13     9    10 ar  
    14     9    23 1   
    15    10    11 1   
    16    11    12 2   
    17    12    13 1   
    18    13    14 1   
    19    13    18 2   
    20    14    15 2   
    21    14    16 1   
    22    15    24 1   
    23    16    17 2   
    24    17    18 1   
    25    18    19 1   
    26    19    25 1   
    27    19    26 1   
@<TRIPOS>SUBSTRUCTURE
     1 U12         1 TEMP              0 ****  ****    0 ROOT
