@<TRIPOS>MOLECULE
U13
   23    24     1     0     0
SMALL
abcg2


@<TRIPOS>ATOM
      1 F7           5.4450    -0.3640     0.0070 f          1 U13      -0.177000
      2 C3           4.1180    -0.1730     0.0080 ca         1 U13       0.178000
      3 C6           3.2840    -1.2800     0.0070 ca         1 U13      -0.156000
      4 C2           1.9150    -1.0850     0.0080 ca         1 U13      -0.064500
      5 C5           1.3850     0.2080     0.0090 ca         1 U13       0.090400
      6 C4           2.2530     1.2990     0.0090 ca         1 U13      -0.064500
      7 C1           3.6270     1.1170     0.0090 ca         1 U13      -0.156000
      8 N9           0.0180     0.5150     0.0100 ne         1 U13      -0.302400
      9 N13         -0.7510    -0.4740     0.0130 nf         1 U13      -0.104600
     10 C14         -2.0750    -0.1670     0.0120 cd         1 U13      -0.197000
     11 C19         -2.7100     1.0520     0.0040 cc         1 U13       0.319600
     12 N16         -2.2590     2.2820    -0.0050 nv         1 U13      -0.892000
     13 N20         -4.1320     0.8460     0.0040 nc         1 U13      -0.166600
     14 N17         -4.3890    -0.3630     0.0130 nd         1 U13      -0.249300
     15 C15         -3.1520    -1.1300     0.0190 cd         1 U13       0.594600
     16 N18         -3.1310    -2.3890     0.0290 n2         1 U13      -0.639100
     17 H6           3.7010    -2.2780     0.0050 ha         1 U13       0.134000
     18 H2           1.2550    -1.9420     0.0080 ha         1 U13       0.131000
     19 H4           1.8410     2.3000     0.0100 ha         1 U13       0.131000
     20 H1           4.3010     1.9630     0.0090 ha         1 U13       0.134000
     21 H161        -1.2620     2.4380    -0.0060 hn         1 U13       0.524000
     22 H162        -2.8900     3.0680    -0.0130 hn         1 U13       0.524000
     23 H182        -4.0760    -2.7650     0.0310 hn         1 U13       0.408400
@<TRIPOS>BOND
     1     1     2 1   
     2     2     3 ar  
     3     2     7 ar  
     4     3     4 ar  
     5     3    17 1   
     6     4     5 ar  
     7     4    18 1   
     8     5     6 ar  
     9     5     8 1   
    10     6     7 ar  
    11     6    19 1   
    12     7    20 1   
    13     8     9 2   
    14     9    10 1   
    15    10    11 2   
    16    10    15 1   
    17    11    12 1   
    18    11    13 1   
    19    12    21 1   
    20    12    22 1   
    21    13    14 2   
    22    14    15 1   
    23    15    16 2   
    24    16    23 1   
@<TRIPOS>SUBSTRUCTURE
     1 U13         1 TEMP              0 ****  ****    0 ROOT
