@<TRIPOS>MOLECULE
U13
   23    24     1     0     0
SMALL
No Charge or Current Charge


@<TRIPOS>ATOM
      1 F7           5.4840    -0.4460     0.3100 f          1 U13      -0.177000
      2 C3           4.1590    -0.2330     0.1530 ca         1 U13       0.178000
      3 C6           3.4410    -0.9690    -0.8010 ca         1 U13      -0.156000
      4 C2           2.0610    -0.7470    -0.9650 ca         1 U13      -0.064500
      5 C5           1.3990     0.2110    -0.1720 ca         1 U13       0.090400
      6 C4           2.1280     0.9490     0.7820 ca         1 U13      -0.064500
      7 C1           3.5080     0.7260     0.9450 ca         1 U13      -0.156000
      8 N9           0.0200     0.4370    -0.3390 ne         1 U13      -0.302400
      9 N13         -0.7430    -0.2640     0.3880 nf         1 U13      -0.104600
     10 C14         -2.1110    -0.0520     0.2300 cd         1 U13      -0.197000
     11 C19         -2.8110     1.0040    -0.2840 cc         1 U13       0.319600
     12 N16         -2.3580     2.1770    -0.7990 nv         1 U13      -0.892000
     13 N20         -4.1670     0.7910    -0.2340 nc         1 U13      -0.166600
     14 N17         -4.3900    -0.3900     0.3130 nd         1 U13      -0.249300
     15 C15         -3.1570    -0.9170     0.6060 cd         1 U13       0.594600
     16 N18         -3.0090    -2.0680     1.1590 n2         1 U13      -0.639100
     17 H6           3.9530    -1.7090    -1.4120 ha         1 U13       0.134000
     18 H2           1.5030    -1.3160    -1.7050 ha         1 U13       0.131000
     19 H4           1.6220     1.6910     1.3950 ha         1 U13       0.131000
     20 H1           4.0710     1.2940     1.6820 ha         1 U13       0.134000
     21 H161        -1.3670     2.2410    -1.0170 hn         1 U13       0.524000
     22 H162        -2.9840     2.7490    -1.3590 hn         1 U13       0.524000
     23 H182        -3.9360    -2.4800     1.3230 hn         1 U13       0.408400
@<TRIPOS>BOND
     1     1     2 1   
     2     2     3 ar  
     3     2     7 ar  
     4     3     4 ar  
     5     3    17 1   
     6     4     5 ar  
     7     4    18 1   
     8     5     6 ar  
     9     5     8 1   
    10     6     7 ar  
    11     6    19 1   
    12     7    20 1   
    13     8     9 2   
    14     9    10 1   
    15    10    11 2   
    16    10    15 1   
    17    11    12 1   
    18    11    13 1   
    19    12    21 1   
    20    12    22 1   
    21    13    14 2   
    22    14    15 1   
    23    15    16 2   
    24    16    23 1   
@<TRIPOS>SUBSTRUCTURE
     1 U13         1 TEMP              0 ****  ****    0 ROOT
