@<TRIPOS>MOLECULE
U14
   25    26     1     0     0
SMALL
No Charge or Current Charge


@<TRIPOS>ATOM
      1 O2           3.8050     1.5310    -1.7860 o          1 U14      -0.718500
      2 C4           4.1420     0.4880    -1.2420 c          1 U14       0.715600
      3 O1           5.2740     0.0340    -1.3230 o          1 U14      -0.718500
      4 C9           3.1100    -0.2750    -0.4320 ca         1 U14      -0.150600
      5 C6           3.4500    -1.4810     0.2240 ca         1 U14      -0.060000
      6 C10          2.4910    -2.1830     0.9740 ca         1 U14      -0.157000
      7 C7           1.1790    -1.6920     1.0790 ca         1 U14      -0.104000
      8 C8           1.7840     0.2070    -0.3170 ca         1 U14      -0.039000
      9 C5           0.8200    -0.4970     0.4320 ca         1 U14       0.042400
     10 N6          -0.4920    -0.0010     0.5440 ne         1 U14      -0.253400
     11 N5          -1.2970    -0.3660    -0.3630 nf         1 U14      -0.155600
     12 C2          -2.6030     0.1150    -0.2610 cd         1 U14      -0.169000
     13 C3          -3.1210     1.1970     0.3990 cc         1 U14       0.284600
     14 N4          -2.4950     2.1330     1.1610 nv         1 U14      -0.910000
     15 N2          -4.4780     1.3050     0.2160 nc         1 U14      -0.169600
     16 C1          -3.7610    -0.4140    -0.8680 cd         1 U14       0.600600
     17 N3          -4.8810     0.3180    -0.5630 nd         1 U14      -0.287300
     18 N1          -3.8020    -1.4550    -1.6230 n2         1 U14      -0.652100
     19 H6           4.4610    -1.8790     0.1550 ha         1 U14       0.130000
     20 H10          2.7650    -3.1080     1.4740 ha         1 U14       0.091000
     21 H7           0.4410    -2.2380     1.6620 ha         1 U14       0.114000
     22 H8           1.4920     1.1320    -0.8090 ha         1 U14       0.131000
     23 HN41        -1.5390     1.9450     1.4540 hn         1 U14       0.521500
     24 HN42        -3.0470     2.7350     1.7680 hn         1 U14       0.521500
     25 HN12        -4.7730    -1.6080    -1.9230 hn         1 U14       0.392400
@<TRIPOS>BOND
     1     1     2 1   
     2     2     3 1   
     3     2     4 1   
     4     4     5 ar  
     5     4     8 ar  
     6     5     6 ar  
     7     5    19 1   
     8     6     7 ar  
     9     6    20 1   
    10     7     9 ar  
    11     7    21 1   
    12     8     9 ar  
    13     8    22 1   
    14     9    10 1   
    15    10    11 2   
    16    11    12 1   
    17    12    13 2   
    18    12    16 1   
    19    13    14 1   
    20    13    15 1   
    21    14    23 1   
    22    14    24 1   
    23    15    17 2   
    24    16    17 1   
    25    16    18 2   
    26    18    25 1   
@<TRIPOS>SUBSTRUCTURE
     1 U14         1 TEMP              0 ****  ****    0 ROOT
