@<TRIPOS>MOLECULE
U14
   25    26     1     0     0
SMALL
bcc


@<TRIPOS>ATOM
      1 O2           4.1080     2.0470    -0.0050 o          1 U14      -0.823800
      2 C4           4.3780     0.8310    -0.0210 c          1 U14       0.926200
      3 O1           5.5120     0.3160    -0.0500 o          1 U14      -0.823800
      4 C9           3.1950    -0.1310    -0.0060 ca         1 U14      -0.150600
      5 C6           3.3940    -1.5080     0.0030 ca         1 U14      -0.078000
      6 C10          2.3100    -2.3800     0.0180 ca         1 U14      -0.175000
      7 C7           1.0140    -1.8960     0.0230 ca         1 U14      -0.122000
      8 C8           1.8910     0.3500     0.0010 ca         1 U14      -0.057000
      9 C5           0.8000    -0.5140     0.0120 ca         1 U14       0.042400
     10 N6          -0.4620     0.1000     0.0150 ne         1 U14      -0.253400
     11 N5          -1.4400    -0.6820     0.0030 nf         1 U14      -0.155600
     12 C2          -2.6550    -0.0700     0.0030 cd         1 U14      -0.169000
     13 C3          -2.9840     1.2640     0.0040 cc         1 U14       0.284600
     14 N4          -2.2550     2.3530     0.0100 nv         1 U14      -0.799600
     15 N2          -4.4140     1.4010    -0.0040 nc         1 U14      -0.169600
     16 C1          -3.9290    -0.7500    -0.0070 cd         1 U14       0.600600
     17 N3          -4.9500     0.2870    -0.0110 nd         1 U14      -0.287300
     18 N1          -4.2080    -1.9780    -0.0110 n2         1 U14      -0.652100
     19 H6           4.4020    -1.9000    -0.0020 ha         1 U14       0.148000
     20 H10          2.4790    -3.4500     0.0270 ha         1 U14       0.109000
     21 H7           0.1760    -2.5790     0.0340 ha         1 U14       0.132000
     22 H8           1.7120     1.4180    -0.0030 ha         1 U14       0.149000
     23 HN41        -1.2490     2.2690     0.0110 hn         1 U14       0.466300
     24 HN42        -2.6830     3.2660     0.0040 hn         1 U14       0.466300
     25 HN12        -5.2160    -2.1200    -0.0180 hn         1 U14       0.392400
@<TRIPOS>BOND
     1     1     2 1   
     2     2     3 1   
     3     2     4 1   
     4     4     5 ar  
     5     4     8 ar  
     6     5     6 ar  
     7     5    19 1   
     8     6     7 ar  
     9     6    20 1   
    10     7     9 ar  
    11     7    21 1   
    12     8     9 ar  
    13     8    22 1   
    14     9    10 1   
    15    10    11 2   
    16    11    12 1   
    17    12    13 2   
    18    12    16 1   
    19    13    14 1   
    20    13    15 1   
    21    14    23 1   
    22    14    24 1   
    23    15    17 2   
    24    16    17 1   
    25    16    18 2   
    26    18    25 1   
@<TRIPOS>SUBSTRUCTURE
     1 U14         1 TEMP              0 ****  ****    0 ROOT
