@<TRIPOS>MOLECULE
U15
   59    59     1     0     0
SMALL
abcg2


@<TRIPOS>ATOM
      1 O42          3.1060     1.9070     1.3850 o          1 U15      -0.478000
      2 C41          3.7840     1.7890     0.3990 c          1 U15       0.572100
      3 O43          4.4230     2.7840    -0.1920 os         1 U15      -0.440100
      4 C44          4.3230     4.0800     0.4030 c3         1 U15       0.150900
      5 C37          4.0380     0.4720    -0.3220 c3         1 U15       0.053700
      6 C39          5.4730    -0.0080    -0.0760 c3         1 U15      -0.081400
      7 C48          5.8370    -1.3030    -0.8060 c3         1 U15      -0.057700
      8 C53          5.6790    -1.1760    -2.3170 c3         1 U15      -0.091600
      9 C51          7.2650    -1.7000    -0.4460 c3         1 U15      -0.091600
     10 N36          3.0950    -0.5220     0.1110 ns         1 U15      -0.483900
     11 C27          1.8330    -0.5620    -0.3420 c          1 U15       0.595100
     12 O35          1.3990     0.2060    -1.1840 o          1 U15      -0.600100
     13 C24          0.9930    -1.6990     0.2290 c3         1 U15       0.031700
     14 C28          1.4250    -3.0330    -0.3860 c3         1 U15      -0.109100
     15 N23         -0.3950    -1.4030    -0.0290 ns         1 U15      -0.483900
     16 C20         -1.3990    -1.8660     0.7190 c          1 U15       0.556100
     17 O22         -1.2460    -2.5830     1.7010 o          1 U15      -0.619100
     18 C14         -2.7990    -1.4190     0.3070 c3         1 U15       0.057300
     19 O19         -3.7430    -2.1110     1.0670 oh         1 U15      -0.643000
     20 C7          -2.9550     0.1120     0.5110 c3         1 U15       0.207800
     21 N15         -2.6680     0.5460     1.8620 n8         1 U15      -1.004200
     22 C3          -4.3370     0.5260     0.0580 ca         1 U15      -0.065300
     23 C6          -4.6220     0.5970    -1.3020 ca         1 U15      -0.089500
     24 C2          -5.8880     0.9470    -1.7540 ca         1 U15      -0.112500
     25 C5          -6.9140     1.2360    -0.8570 ca         1 U15      -0.075300
     26 C9          -8.2920     1.5940    -1.3360 c3         1 U15      -0.045800
     27 C4          -6.6230     1.1690     0.5040 ca         1 U15      -0.112500
     28 C1          -5.3570     0.8200     0.9560 ca         1 U15      -0.089500
     29 H441         4.9160     4.7420    -0.2210 h1         1 U15       0.051033
     30 H442         3.2900     4.4280     0.4210 h1         1 U15       0.051033
     31 H443         4.7220     4.0820     1.4160 h1         1 U15       0.051033
     32 H37          3.8980     0.6470    -1.3910 h1         1 U15       0.105700
     33 H391         6.1600     0.7820    -0.3910 hc         1 U15       0.058200
     34 H392         5.6260    -0.1420     1.0000 hc         1 U15       0.058200
     35 H48          5.1720    -2.1010    -0.4600 hc         1 U15       0.044700
     36 H531         6.2900    -0.3570    -2.7050 hc         1 U15       0.037033
     37 H532         5.9960    -2.0920    -2.8170 hc         1 U15       0.037033
     38 H533         4.6460    -0.9910    -2.6150 hc         1 U15       0.037033
     39 H511         7.5400    -2.6430    -0.9210 hc         1 U15       0.037033
     40 H512         7.9790    -0.9420    -0.7780 hc         1 U15       0.037033
     41 H513         7.3870    -1.8230     0.6320 hc         1 U15       0.037033
     42 HN36         3.3460    -1.0940     0.9040 hn         1 U15       0.325500
     43 H24          1.1420    -1.7420     1.3100 h1         1 U15       0.087700
     44 H281         1.2920    -3.0230    -1.4680 hc         1 U15       0.052033
     45 H282         2.4720    -3.2430    -0.1700 hc         1 U15       0.052033
     46 H283         0.8280    -3.8450     0.0280 hc         1 U15       0.052033
     47 HN23        -0.5980    -0.8600    -0.8560 hn         1 U15       0.344500
     48 H14         -2.9360    -1.6490    -0.7580 h1         1 U15       0.076700
     49 HO19        -3.2520    -2.5820     1.7560 ho         1 U15       0.470000
     50 H7          -2.2340     0.6100    -0.1460 h1         1 U15       0.065700
     51 H151        -3.1190    -0.0580     2.5390 hn         1 U15       0.408500
     52 H152        -1.6740     0.4990     2.0460 hn         1 U15       0.408500
     53 H6          -3.8430     0.3880    -2.0270 ha         1 U15       0.111000
     54 H2          -6.0750     1.0040    -2.8200 ha         1 U15       0.108500
     55 H91         -8.9570     0.7280    -1.2980 hc         1 U15       0.040700
     56 H92         -8.7390     2.3690    -0.7140 hc         1 U15       0.040700
     57 H93         -8.2770     1.9490    -2.3660 hc         1 U15       0.040700
     58 H4          -7.3990     1.3980     1.2270 ha         1 U15       0.108500
     59 H1          -5.1720     0.7970     2.0220 ha         1 U15       0.111000
@<TRIPOS>BOND
     1     1     2 2   
     2     2     3 1   
     3     2     5 1   
     4     3     4 1   
     5     4    29 1   
     6     4    30 1   
     7     4    31 1   
     8     5     6 1   
     9     5    10 1   
    10     5    32 1   
    11     6     7 1   
    12     6    33 1   
    13     6    34 1   
    14     7     8 1   
    15     7     9 1   
    16     7    35 1   
    17     8    36 1   
    18     8    37 1   
    19     8    38 1   
    20     9    39 1   
    21     9    40 1   
    22     9    41 1   
    23    10    11 1   
    24    10    42 1   
    25    11    12 2   
    26    11    13 1   
    27    13    14 1   
    28    13    15 1   
    29    13    43 1   
    30    14    44 1   
    31    14    45 1   
    32    14    46 1   
    33    15    16 1   
    34    15    47 1   
    35    16    17 2   
    36    16    18 1   
    37    18    19 1   
    38    18    20 1   
    39    18    48 1   
    40    19    49 1   
    41    20    21 1   
    42    20    22 1   
    43    20    50 1   
    44    21    51 1   
    45    21    52 1   
    46    22    23 ar  
    47    22    28 ar  
    48    23    24 ar  
    49    23    53 1   
    50    24    25 ar  
    51    24    54 1   
    52    25    26 1   
    53    25    27 ar  
    54    26    55 1   
    55    26    56 1   
    56    26    57 1   
    57    27    28 ar  
    58    27    58 1   
    59    28    59 1   
@<TRIPOS>SUBSTRUCTURE
     1 U15         1 TEMP              0 ****  ****    0 ROOT
