@<TRIPOS>MOLECULE
U15
   59    59     1     0     0
SMALL
No Charge or Current Charge


@<TRIPOS>ATOM
      1 O42          4.9020     2.0440     1.8320 o          1 U15      -0.478000
      2 C41          4.9060     1.9860     0.6070 c          1 U15       0.572100
      3 O43          5.4690     2.9380    -0.2060 os         1 U15      -0.440100
      4 C44          6.1330     4.0550     0.4160 c3         1 U15       0.150900
      5 C37          4.2150     0.8660    -0.2160 c3         1 U15       0.053700
      6 C39          5.2620    -0.0930    -0.8490 c3         1 U15      -0.081400
      7 C48          4.7010    -1.1580    -1.8340 c3         1 U15      -0.057700
      8 C53          4.1000    -0.5270    -3.1130 c3         1 U15      -0.091600
      9 C51          5.7870    -2.1940    -2.2020 c3         1 U15      -0.091600
     10 N36          3.2440     0.1300     0.6280 ns         1 U15      -0.483900
     11 C27          1.9520    -0.1880     0.2640 c          1 U15       0.595100
     12 O35          1.4680     0.1800    -0.7990 o          1 U15      -0.600100
     13 C24          1.1610    -1.0320     1.3050 c3         1 U15       0.031700
     14 C28          1.7670    -2.4460     1.4750 c3         1 U15      -0.109100
     15 N23         -0.2660    -1.1170     0.9210 ns         1 U15      -0.483900
     16 C20         -1.3040    -1.4140     1.7800 c          1 U15       0.556100
     17 O22         -1.1150    -1.6550     2.9660 o          1 U15      -0.619100
     18 C14         -2.7170    -1.4820     1.1360 c3         1 U15       0.057300
     19 O19         -3.4540    -2.6510     1.6020 oh         1 U15      -0.643000
     20 C7          -3.5020    -0.1540     1.4050 c3         1 U15       0.207800
     21 N15         -4.1740    -0.1470     2.7270 n8         1 U15      -1.004200
     22 C3          -4.5070     0.1690     0.2940 ca         1 U15      -0.065300
     23 C6          -4.3880     1.3750    -0.4290 ca         1 U15      -0.089500
     24 C2          -5.2960     1.6850    -1.4570 ca         1 U15      -0.112500
     25 C5          -6.3370     0.7960    -1.7790 ca         1 U15      -0.075300
     26 C9          -7.3200     1.1340    -2.8900 c3         1 U15      -0.045800
     27 C4          -6.4640    -0.4050    -1.0590 ca         1 U15      -0.112500
     28 C1          -5.5570    -0.7170    -0.0300 ca         1 U15      -0.089500
     29 H441         6.5370     4.7320    -0.3470 h1         1 U15       0.051033
     30 H442         5.4360     4.6260     1.0430 h1         1 U15       0.051033
     31 H443         6.9670     3.7140     1.0440 h1         1 U15       0.051033
     32 H37          3.6780     1.3860    -1.0190 h1         1 U15       0.105700
     33 H391         6.0180     0.5030    -1.3750 hc         1 U15       0.058200
     34 H392         5.7910    -0.6040    -0.0340 hc         1 U15       0.058200
     35 H48          3.8990    -1.7080    -1.3260 hc         1 U15       0.044700
     36 H531         4.8570     0.0520    -3.6560 hc         1 U15       0.037033
     37 H532         3.7190    -1.3050    -3.7850 hc         1 U15       0.037033
     38 H533         3.2640     0.1410    -2.8760 hc         1 U15       0.037033
     39 H511         5.3770    -2.9680    -2.8620 hc         1 U15       0.037033
     40 H512         6.6280    -1.7140    -2.7170 hc         1 U15       0.037033
     41 H513         6.1730    -2.6890    -1.3030 hc         1 U15       0.037033
     42 HN36         3.5500    -0.1830     1.5430 hn         1 U15       0.325500
     43 H24          1.2330    -0.5000     2.2630 h1         1 U15       0.087700
     44 H281         1.7320    -2.9990     0.5290 hc         1 U15       0.052033
     45 H282         2.8130    -2.3900     1.8000 hc         1 U15       0.052033
     46 H283         1.2150    -3.0200     2.2280 hc         1 U15       0.052033
     47 HN23        -0.5050    -0.9270    -0.0480 hn         1 U15       0.344500
     48 H14         -2.5600    -1.5560     0.0510 h1         1 U15       0.076700
     49 HO19        -3.1000    -2.8710     2.4940 ho         1 U15       0.470000
     50 H7          -2.7610     0.6590     1.4180 h1         1 U15       0.065700
     51 H151        -4.8290    -0.9360     2.7410 hn         1 U15       0.408500
     52 H152        -3.4860    -0.3980     3.4460 hn         1 U15       0.408500
     53 H6          -3.5900     2.0760    -0.1950 ha         1 U15       0.111000
     54 H2          -5.1880     2.6200    -2.0020 ha         1 U15       0.108500
     55 H91         -7.7000     0.2280    -3.3770 hc         1 U15       0.040700
     56 H92         -8.1800     1.6870    -2.4940 hc         1 U15       0.040700
     57 H93         -6.8510     1.7520    -3.6650 hc         1 U15       0.040700
     58 H4          -7.2670    -1.1000    -1.2940 ha         1 U15       0.108500
     59 H1          -5.6760    -1.6500     0.5150 ha         1 U15       0.111000
@<TRIPOS>BOND
     1     1     2 2   
     2     2     3 1   
     3     2     5 1   
     4     3     4 1   
     5     4    29 1   
     6     4    30 1   
     7     4    31 1   
     8     5     6 1   
     9     5    10 1   
    10     5    32 1   
    11     6     7 1   
    12     6    33 1   
    13     6    34 1   
    14     7     8 1   
    15     7     9 1   
    16     7    35 1   
    17     8    36 1   
    18     8    37 1   
    19     8    38 1   
    20     9    39 1   
    21     9    40 1   
    22     9    41 1   
    23    10    11 1   
    24    10    42 1   
    25    11    12 2   
    26    11    13 1   
    27    13    14 1   
    28    13    15 1   
    29    13    43 1   
    30    14    44 1   
    31    14    45 1   
    32    14    46 1   
    33    15    16 1   
    34    15    47 1   
    35    16    17 2   
    36    16    18 1   
    37    18    19 1   
    38    18    20 1   
    39    18    48 1   
    40    19    49 1   
    41    20    21 1   
    42    20    22 1   
    43    20    50 1   
    44    21    51 1   
    45    21    52 1   
    46    22    23 ar  
    47    22    28 ar  
    48    23    24 ar  
    49    23    53 1   
    50    24    25 ar  
    51    24    54 1   
    52    25    26 1   
    53    25    27 ar  
    54    26    55 1   
    55    26    56 1   
    56    26    57 1   
    57    27    28 ar  
    58    27    58 1   
    59    28    59 1   
@<TRIPOS>SUBSTRUCTURE
     1 U15         1 TEMP              0 ****  ****    0 ROOT
