@<TRIPOS>MOLECULE
U16
   65    65     1     0     0
SMALL
abcg2


@<TRIPOS>ATOM
      1 O31          0.4390    -2.7290    -1.8840 o          1 U16      -0.618100
      2 C25          0.6540    -2.0250    -0.9050 c          1 U16       0.586100
      3 C23          2.0910    -1.6840    -0.5080 c3         1 U16       0.102300
      4 C11          2.3490    -0.1800    -0.7200 c3         1 U16       0.196800
      5 C7           3.7490     0.1710    -0.2560 ca         1 U16      -0.116300
      6 C3           4.8360     0.1930    -1.1240 ca         1 U16      -0.097000
      7 C6           6.1090     0.4990    -0.6670 ca         1 U16      -0.105000
      8 C5           6.3450     0.7920     0.6750 ca         1 U16      -0.069300
      9 C9           7.7260     1.1410     1.1790 c3         1 U16      -0.016400
     10 C14          8.7110    -0.0090     0.9760 c3         1 U16      -0.084100
     11 C15          8.2480     2.4300     0.5430 c3         1 U16      -0.084100
     12 C2           5.2560     0.7650     1.5420 ca         1 U16      -0.105000
     13 C4           3.9810     0.4610     1.0850 ca         1 U16      -0.097000
     14 N24          2.0150     0.1620    -2.0870 n8         1 U16      -0.999200
     15 O27          2.9700    -2.4590    -1.2670 oh         1 U16      -0.653000
     16 N32         -0.3000    -1.5130    -0.1270 ns         1 U16      -0.480900
     17 C33         -1.7100    -1.7020    -0.3600 c3         1 U16       0.037700
     18 C37         -2.2160    -3.0300     0.2100 c3         1 U16      -0.109100
     19 C36         -2.4540    -0.5360     0.2820 c          1 U16       0.598100
     20 O41         -1.9330     0.1820     1.1210 o          1 U16      -0.606100
     21 N42         -3.7320    -0.4110    -0.1050 ns         1 U16      -0.483900
     22 C43         -4.5980     0.6180     0.4000 c3         1 U16       0.055700
     23 C45         -6.0670     0.2050     0.2490 c3         1 U16      -0.081400
     24 C49         -6.4310    -1.0940     0.9720 c3         1 U16      -0.057700
     25 C52         -6.1490    -1.0160     2.4690 c3         1 U16      -0.091600
     26 C53         -7.8980    -1.4210     0.7150 c3         1 U16      -0.091600
     27 C47         -4.3290     1.9330    -0.3200 c          1 U16       0.570100
     28 O60         -3.6620     2.0440    -1.3150 o          1 U16      -0.474000
     29 O61         -4.9380     2.9380     0.2860 os         1 U16      -0.442100
     30 C62         -4.8160     4.2370    -0.2980 c3         1 U16       0.151900
     31 H23          2.2240    -1.9110     0.5570 h1         1 U16       0.070700
     32 H11          1.6530     0.3600    -0.0700 h1         1 U16       0.068700
     33 H3           4.6960    -0.0140    -2.1780 ha         1 U16       0.108500
     34 H6           6.9280     0.5090    -1.3770 ha         1 U16       0.111000
     35 H9           7.6410     1.3170     2.2560 hc         1 U16       0.047700
     36 H141         8.3640    -0.9220     1.4600 hc         1 U16       0.035033
     37 H142         8.8580    -0.2280    -0.0840 hc         1 U16       0.035033
     38 H143         9.6860     0.2450     1.3960 hc         1 U16       0.035033
     39 H151         7.5590     3.2600     0.7020 hc         1 U16       0.035033
     40 H152         9.2110     2.7050     0.9770 hc         1 U16       0.035033
     41 H153         8.3930     2.3170    -0.5330 hc         1 U16       0.035033
     42 H2           5.4050     0.9920     2.5910 ha         1 U16       0.111000
     43 H4           3.1530     0.4570     1.7850 ha         1 U16       0.108500
     44 H241         2.2160     1.1390    -2.2600 hn         1 U16       0.407000
     45 H242         2.5800    -0.3670    -2.7390 hn         1 U16       0.407000
     46 HO27         2.4380    -2.8800    -1.9600 ho         1 U16       0.475000
     47 HN32        -0.0440    -0.9820     0.6930 hn         1 U16       0.339500
     48 H33         -1.8940    -1.6830    -1.4370 h1         1 U16       0.090700
     49 H371        -2.0650    -3.0710     1.2890 hc         1 U16       0.050033
     50 H372        -3.2780    -3.1670     0.0080 hc         1 U16       0.050033
     51 H373        -1.6800    -3.8600    -0.2460 hc         1 U16       0.050033
     52 HN42        -4.0550    -0.9540    -0.8910 hn         1 U16       0.325500
     53 H43         -4.3800     0.7740     1.4580 h1         1 U16       0.104700
     54 H451        -6.6930     1.0130     0.6340 hc         1 U16       0.057700
     55 H452        -6.3050     0.1080    -0.8160 hc         1 U16       0.057700
     56 H49         -5.8310    -1.9090     0.5540 hc         1 U16       0.045700
     57 H521        -6.7010    -0.1920     2.9270 hc         1 U16       0.036700
     58 H522        -6.4560    -1.9370     2.9680 hc         1 U16       0.036700
     59 H523        -5.0900    -0.8700     2.6860 hc         1 U16       0.036700
     60 H531        -8.1060    -1.5150    -0.3520 hc         1 U16       0.036700
     61 H532        -8.1780    -2.3610     1.1920 hc         1 U16       0.036700
     62 H533        -8.5510    -0.6400     1.1130 hc         1 U16       0.036700
     63 H621        -3.7760     4.5620    -0.3280 h1         1 U16       0.050033
     64 H622        -5.2300     4.2580    -1.3060 h1         1 U16       0.050033
     65 H623        -5.3860     4.9050     0.3400 h1         1 U16       0.050033
@<TRIPOS>BOND
     1     1     2 2   
     2     2     3 1   
     3     2    16 1   
     4     3     4 1   
     5     3    15 1   
     6     3    31 1   
     7     4     5 1   
     8     4    14 1   
     9     4    32 1   
    10     5     6 ar  
    11     5    13 ar  
    12     6     7 ar  
    13     6    33 1   
    14     7     8 ar  
    15     7    34 1   
    16     8     9 1   
    17     8    12 ar  
    18     9    10 1   
    19     9    11 1   
    20     9    35 1   
    21    10    36 1   
    22    10    37 1   
    23    10    38 1   
    24    11    39 1   
    25    11    40 1   
    26    11    41 1   
    27    12    13 ar  
    28    12    42 1   
    29    13    43 1   
    30    14    44 1   
    31    14    45 1   
    32    15    46 1   
    33    16    17 1   
    34    16    47 1   
    35    17    18 1   
    36    17    19 1   
    37    17    48 1   
    38    18    49 1   
    39    18    50 1   
    40    18    51 1   
    41    19    20 2   
    42    19    21 1   
    43    21    22 1   
    44    21    52 1   
    45    22    23 1   
    46    22    27 1   
    47    22    53 1   
    48    23    24 1   
    49    23    54 1   
    50    23    55 1   
    51    24    25 1   
    52    24    26 1   
    53    24    56 1   
    54    25    57 1   
    55    25    58 1   
    56    25    59 1   
    57    26    60 1   
    58    26    61 1   
    59    26    62 1   
    60    27    28 2   
    61    27    29 1   
    62    29    30 1   
    63    30    63 1   
    64    30    64 1   
    65    30    65 1   
@<TRIPOS>SUBSTRUCTURE
     1 U16         1 TEMP              0 ****  ****    0 ROOT
