@<TRIPOS>MOLECULE
U16
   65    65     1     0     0
SMALL
No Charge or Current Charge


@<TRIPOS>ATOM
      1 O31          0.4430    -1.7280    -4.1440 o          1 U16      -0.618100
      2 C25          0.9540    -2.0530    -3.0770 c          1 U16       0.586100
      3 C23          2.3960    -2.6340    -2.9500 c3         1 U16       0.102300
      4 C11          3.4350    -1.4890    -3.0430 c3         1 U16       0.196800
      5 C7           3.3220    -0.5080    -1.8790 ca         1 U16      -0.116300
      6 C3           3.4620    -0.9370    -0.5430 ca         1 U16      -0.097000
      7 C6           3.2580    -0.0390     0.5180 ca         1 U16      -0.105000
      8 C5           2.9180     1.3050     0.2650 ca         1 U16      -0.069300
      9 C9           2.6520     2.2820     1.4120 c3         1 U16      -0.016400
     10 C14          1.3360     1.9300     2.1400 c3         1 U16      -0.084100
     11 C15          3.8440     2.3710     2.3920 c3         1 U16      -0.084100
     12 C2           2.7940     1.7360    -1.0700 ca         1 U16      -0.105000
     13 C4           2.9930     0.8380    -2.1320 ca         1 U16      -0.097000
     14 N24          4.8060    -2.0430    -3.1630 n8         1 U16      -0.999200
     15 O27          2.7490    -3.6140    -3.9540 oh         1 U16      -0.653000
     16 N32          0.2850    -1.9170    -1.8770 ns         1 U16      -0.480900
     17 C33         -1.0200    -1.2500    -1.6940 c3         1 U16       0.037700
     18 C37         -2.1810    -2.1940    -2.0810 c3         1 U16      -0.109100
     19 C36         -1.1490    -0.7550    -0.2250 c          1 U16       0.598100
     20 O41         -0.4350    -1.1710     0.6790 o          1 U16      -0.606100
     21 N42         -2.1160     0.2040    -0.0100 ns         1 U16      -0.483900
     22 C43         -2.4410     0.8030     1.3050 c3         1 U16       0.055700
     23 C45         -3.8170     0.3140     1.8320 c3         1 U16      -0.081400
     24 C49         -3.9380    -1.2170     2.0830 c3         1 U16      -0.057700
     25 C52         -2.9970    -1.7130     3.2070 c3         1 U16      -0.091600
     26 C53         -5.4010    -1.6110     2.3880 c3         1 U16      -0.091600
     27 C47         -2.3840     2.3520     1.2250 c          1 U16       0.570100
     28 O60         -2.4230     2.9900     0.1800 o          1 U16      -0.474000
     29 O61         -2.1880     2.9130     2.4620 os         1 U16      -0.442100
     30 C62         -2.0590     4.3450     2.5440 c3         1 U16       0.151900
     31 H23          2.4750    -3.0980    -1.9580 h1         1 U16       0.070700
     32 H11          3.2280    -0.9430    -3.9770 h1         1 U16       0.068700
     33 H3           3.7100    -1.9720    -0.3190 ha         1 U16       0.108500
     34 H6           3.3490    -0.3980     1.5400 ha         1 U16       0.111000
     35 H9           2.5200     3.2880     0.9940 hc         1 U16       0.047700
     36 H141         0.5050     1.9060     1.4260 hc         1 U16       0.035033
     37 H142         1.4030     0.9470     2.6220 hc         1 U16       0.035033
     38 H143         1.1040     2.6760     2.9090 hc         1 U16       0.035033
     39 H151         4.7650     2.6220     1.8530 hc         1 U16       0.035033
     40 H152         3.6670     3.1510     3.1430 hc         1 U16       0.035033
     41 H153         4.0000     1.4230     2.9190 hc         1 U16       0.035033
     42 H2           2.5260     2.7670    -1.2890 ha         1 U16       0.111000
     43 H4           2.8700     1.1900    -3.1540 ha         1 U16       0.108500
     44 H241         5.4540    -1.2650    -3.3360 hn         1 U16       0.407000
     45 H242         5.1040    -2.3790    -2.2390 hn         1 U16       0.407000
     46 HO27         3.7200    -3.4520    -4.0690 ho         1 U16       0.475000
     47 HN32         0.7870    -2.1910    -1.0380 hn         1 U16       0.339500
     48 H33         -1.0520    -0.3600    -2.3370 h1         1 U16       0.090700
     49 H371        -2.1800    -3.0890    -1.4470 hc         1 U16       0.050033
     50 H372        -3.1480    -1.6910    -1.9620 hc         1 U16       0.050033
     51 H373        -2.0930    -2.5130    -3.1260 hc         1 U16       0.050033
     52 HN42        -2.6390     0.5160    -0.8210 hn         1 U16       0.325500
     53 H43         -1.6680     0.5250     2.0320 h1         1 U16       0.104700
     54 H451        -4.0470     0.8410     2.7670 hc         1 U16       0.057700
     55 H452        -4.5860     0.6190     1.1120 hc         1 U16       0.057700
     56 H49         -3.6550    -1.7390     1.1600 hc         1 U16       0.045700
     57 H521        -3.2160    -1.2020     4.1530 hc         1 U16       0.036700
     58 H522        -3.1200    -2.7910     3.3660 hc         1 U16       0.036700
     59 H523        -1.9460    -1.5350     2.9570 hc         1 U16       0.036700
     60 H531        -6.0630    -1.3150     1.5640 hc         1 U16       0.036700
     61 H532        -5.4920    -2.6960     2.5190 hc         1 U16       0.036700
     62 H533        -5.7550    -1.1230     3.3050 hc         1 U16       0.036700
     63 H621        -1.1980     4.6940     1.9600 h1         1 U16       0.050033
     64 H622        -2.9620     4.8420     2.1650 h1         1 U16       0.050033
     65 H623        -1.9110     4.6550     3.5860 h1         1 U16       0.050033
@<TRIPOS>BOND
     1     1     2 2   
     2     2     3 1   
     3     2    16 1   
     4     3     4 1   
     5     3    15 1   
     6     3    31 1   
     7     4     5 1   
     8     4    14 1   
     9     4    32 1   
    10     5     6 ar  
    11     5    13 ar  
    12     6     7 ar  
    13     6    33 1   
    14     7     8 ar  
    15     7    34 1   
    16     8     9 1   
    17     8    12 ar  
    18     9    10 1   
    19     9    11 1   
    20     9    35 1   
    21    10    36 1   
    22    10    37 1   
    23    10    38 1   
    24    11    39 1   
    25    11    40 1   
    26    11    41 1   
    27    12    13 ar  
    28    12    42 1   
    29    13    43 1   
    30    14    44 1   
    31    14    45 1   
    32    15    46 1   
    33    16    17 1   
    34    16    47 1   
    35    17    18 1   
    36    17    19 1   
    37    17    48 1   
    38    18    49 1   
    39    18    50 1   
    40    18    51 1   
    41    19    20 2   
    42    19    21 1   
    43    21    22 1   
    44    21    52 1   
    45    22    23 1   
    46    22    27 1   
    47    22    53 1   
    48    23    24 1   
    49    23    54 1   
    50    23    55 1   
    51    24    25 1   
    52    24    26 1   
    53    24    56 1   
    54    25    57 1   
    55    25    58 1   
    56    25    59 1   
    57    26    60 1   
    58    26    61 1   
    59    26    62 1   
    60    27    28 2   
    61    27    29 1   
    62    29    30 1   
    63    30    63 1   
    64    30    64 1   
    65    30    65 1   
@<TRIPOS>SUBSTRUCTURE
     1 U16         1 TEMP              0 ****  ****    0 ROOT
