@<TRIPOS>MOLECULE
U17
   59    58     1     0     0
SMALL
No Charge or Current Charge


@<TRIPOS>ATOM
      1 O2          -2.0010    -2.3640     1.3950 o          1 U17      -0.625100
      2 C10         -2.0550    -1.7130     0.3560 c          1 U17       0.588100
      3 C9          -3.3980    -1.2800    -0.3190 c3         1 U17       0.104300
      4 C7          -4.2770    -0.4280     0.6500 c3         1 U17       0.145500
      5 C3          -4.9100     0.7960    -0.0600 c3         1 U17      -0.109400
      6 C6          -5.6810     1.7590     0.8790 c3         1 U17      -0.078400
      7 C2          -6.2230     3.0060     0.1450 c3         1 U17      -0.074400
      8 C5          -6.9890     3.9670     1.0750 c3         1 U17      -0.089100
      9 N1          -5.3530    -1.2740     1.2490 n8         1 U17      -1.002200
     10 O1          -4.2150    -2.3990    -0.7220 oh         1 U17      -0.660000
     11 N2          -0.9090    -1.2960    -0.2900 ns         1 U17      -0.471900
     12 C11          0.4760    -1.6100     0.1440 c3         1 U17       0.036700
     13 C13          0.8550    -3.0880    -0.1390 c3         1 U17       0.148600
     14 O6           0.8140    -3.3670    -1.5470 oh         1 U17      -0.649000
     15 C12          1.4850    -0.6210    -0.5010 c          1 U17       0.606100
     16 O3           1.1610     0.1930    -1.3570 o          1 U17      -0.590100
     17 N3           2.7810    -0.7050    -0.0310 ns         1 U17      -0.489900
     18 C14          3.9090     0.1510    -0.4710 c3         1 U17       0.057700
     19 C15          4.2170     1.2720     0.5610 c3         1 U17      -0.082400
     20 C17          3.0990     2.3330     0.7680 c3         1 U17      -0.057700
     21 C18          3.4150     3.2370     1.9810 c3         1 U17      -0.091100
     22 C19          2.8520     3.1920    -0.4960 c3         1 U17      -0.091100
     23 C16          5.1660    -0.7160    -0.7470 c          1 U17       0.573100
     24 O4           5.3140    -1.8640    -0.3420 o          1 U17      -0.478000
     25 O5           6.0660    -0.0640    -1.5530 os         1 U17      -0.440100
     26 C20          7.2770    -0.7530    -1.9130 c3         1 U17       0.151900
     27 H9          -3.1320    -0.6710    -1.1940 h1         1 U17       0.069700
     28 H7          -3.6450    -0.0380     1.4620 h1         1 U17       0.059700
     29 H31         -5.5810     0.4490    -0.8560 hc         1 U17       0.053700
     30 H32         -4.1110     1.3650    -0.5520 hc         1 U17       0.053700
     31 H61         -5.0150     2.0810     1.6900 hc         1 U17       0.035200
     32 H62         -6.5220     1.2320     1.3440 hc         1 U17       0.035200
     33 H21         -6.8890     2.6890    -0.6670 hc         1 U17       0.039200
     34 H22         -5.3890     3.5480    -0.3170 hc         1 U17       0.039200
     35 H51         -6.3380     4.3300     1.8800 hc         1 U17       0.032033
     36 H52         -7.3530     4.8350     0.5110 hc         1 U17       0.032033
     37 H53         -7.8530     3.4650     1.5260 hc         1 U17       0.032033
     38 HN11        -4.9850    -1.7250     2.0990 hn         1 U17       0.401500
     39 HN12        -6.0850    -0.6560     1.6200 hn         1 U17       0.401500
     40 HO1         -4.9540    -2.3050    -0.0570 ho         1 U17       0.477000
     41 HN2         -1.0250    -0.7690    -1.1490 hn         1 U17       0.346500
     42 H11          0.5400    -1.4470     1.2280 h1         1 U17       0.090700
     43 H131         1.8590    -3.2910     0.2590 h1         1 U17       0.033700
     44 H132         0.1570    -3.7450     0.3960 h1         1 U17       0.033700
     45 HO6          0.9930    -4.3270    -1.6580 ho         1 U17       0.450000
     46 HN3          2.9710    -1.4170     0.6650 hn         1 U17       0.321500
     47 H14          3.6600     0.6120    -1.4350 h1         1 U17       0.104700
     48 H151         4.4410     0.7950     1.5240 hc         1 U17       0.055700
     49 H152         5.1350     1.7920     0.2580 hc         1 U17       0.055700
     50 H17          2.1650     1.8070     1.0000 hc         1 U17       0.048700
     51 H181         4.3440     3.7980     1.8200 hc         1 U17       0.036700
     52 H182         2.6050     3.9560     2.1520 hc         1 U17       0.036700
     53 H183         3.5300     2.6380     2.8930 hc         1 U17       0.036700
     54 H191         2.0630     3.9310    -0.3120 hc         1 U17       0.036700
     55 H192         3.7630     3.7300    -0.7860 hc         1 U17       0.036700
     56 H193         2.5340     2.5760    -1.3440 hc         1 U17       0.036700
     57 H201         7.8610    -1.0130    -1.0200 h1         1 U17       0.049700
     58 H202         7.0550    -1.6770    -2.4640 h1         1 U17       0.049700
     59 H203         7.9020    -0.1180    -2.5540 h1         1 U17       0.049700
@<TRIPOS>BOND
     1     1     2 2   
     2     2     3 1   
     3     2    11 1   
     4     3     4 1   
     5     3    10 1   
     6     3    27 1   
     7     4     5 1   
     8     4     9 1   
     9     4    28 1   
    10     5     6 1   
    11     5    29 1   
    12     5    30 1   
    13     6     7 1   
    14     6    31 1   
    15     6    32 1   
    16     7     8 1   
    17     7    33 1   
    18     7    34 1   
    19     8    35 1   
    20     8    36 1   
    21     8    37 1   
    22     9    38 1   
    23     9    39 1   
    24    10    40 1   
    25    11    12 1   
    26    11    41 1   
    27    12    13 1   
    28    12    15 1   
    29    12    42 1   
    30    13    14 1   
    31    13    43 1   
    32    13    44 1   
    33    14    45 1   
    34    15    16 2   
    35    15    17 1   
    36    17    18 1   
    37    17    46 1   
    38    18    19 1   
    39    18    23 1   
    40    18    47 1   
    41    19    20 1   
    42    19    48 1   
    43    19    49 1   
    44    20    21 1   
    45    20    22 1   
    46    20    50 1   
    47    21    51 1   
    48    21    52 1   
    49    21    53 1   
    50    22    54 1   
    51    22    55 1   
    52    22    56 1   
    53    23    24 2   
    54    23    25 1   
    55    25    26 1   
    56    26    57 1   
    57    26    58 1   
    58    26    59 1   
@<TRIPOS>SUBSTRUCTURE
     1 U17         1 TEMP              0 ****  ****    0 ROOT
