@<TRIPOS>MOLECULE
U17
   59    58     1     0     0
SMALL
bcc


@<TRIPOS>ATOM
      1 O2          -1.9460    -2.5610     1.7310 o          1 U17      -0.625100
      2 C10         -2.0840    -1.9370     0.6860 c          1 U17       0.655100
      3 C9          -3.4830    -1.5770     0.1890 c3         1 U17       0.081100
      4 C7          -3.6690    -0.0540     0.2160 c3         1 U17       0.145500
      5 C3          -5.0690     0.3430    -0.2620 c3         1 U17      -0.109400
      6 C6          -5.2220     1.8440    -0.4720 c3         1 U17      -0.078400
      7 C2          -6.6290     2.2490    -0.8940 c3         1 U17      -0.074400
      8 C5          -6.7690     3.7480    -1.1210 c3         1 U17      -0.089100
      9 N1          -3.3110     0.4360     1.5380 n8         1 U17      -0.891800
     10 O1          -4.4270    -2.2250     0.9950 oh         1 U17      -0.597800
     11 N2          -1.0660    -1.5330    -0.0780 ns         1 U17      -0.538900
     12 C11          0.3140    -1.7150     0.2900 c3         1 U17       0.036700
     13 C13          0.8800    -3.0390    -0.2150 c3         1 U17       0.125400
     14 O6           0.8330    -3.0300    -1.6170 oh         1 U17      -0.586800
     15 C12          1.1240    -0.5500    -0.2700 c          1 U17       0.673100
     16 O3           0.7350     0.1240    -1.2100 o          1 U17      -0.590100
     17 N3           2.2910    -0.3370     0.3560 ns         1 U17      -0.556900
     18 C14          3.2650     0.6040    -0.1270 c3         1 U17       0.057700
     19 C15          4.2850     0.9200     0.9720 c3         1 U17      -0.082400
     20 C17          3.6880     1.5860     2.2150 c3         1 U17      -0.057700
     21 C18          4.7760     1.7360     3.2740 c3         1 U17      -0.091100
     22 C19          3.0560     2.9350     1.8890 c3         1 U17      -0.091100
     23 C16          3.9700     0.0480    -1.3570 c          1 U17       0.622100
     24 O4           3.9770    -1.1120    -1.6750 o          1 U17      -0.527000
     25 O5           4.5930     1.0100    -2.0160 os         1 U17      -0.416900
     26 C20          5.3510     0.6400    -3.1700 c3         1 U17       0.128700
     27 H9          -3.5910    -1.9220    -0.8480 h1         1 U17       0.069700
     28 H7          -2.9480     0.3710    -0.4920 h1         1 U17       0.059700
     29 H31         -5.8100    -0.0060     0.4640 hc         1 U17       0.053700
     30 H32         -5.2940    -0.1700    -1.2040 hc         1 U17       0.053700
     31 H61         -4.5040     2.1790    -1.2290 hc         1 U17       0.035200
     32 H62         -4.9620     2.3800     0.4470 hc         1 U17       0.035200
     33 H21         -7.3410     1.9250    -0.1290 hc         1 U17       0.039200
     34 H22         -6.9020     1.7120    -1.8080 hc         1 U17       0.039200
     35 H51         -6.0990     4.0910    -1.9120 hc         1 U17       0.032033
     36 H52         -7.7850     4.0160    -1.4100 hc         1 U17       0.032033
     37 H53         -6.5220     4.3080    -0.2170 hc         1 U17       0.032033
     38 HN11        -3.2800     1.4470     1.5370 hn         1 U17       0.346300
     39 HN12        -4.0320     0.1800     2.2030 hn         1 U17       0.346300
     40 HO1         -3.9370    -2.5880     1.7480 ho         1 U17       0.438000
     41 HN2         -1.2530    -1.0560    -0.9470 hn         1 U17       0.346500
     42 H11          0.3930    -1.7180     1.3800 h1         1 U17       0.090700
     43 H131         1.9020    -3.1580     0.1660 h1         1 U17       0.033700
     44 H132         0.2830    -3.8510     0.2170 h1         1 U17       0.033700
     45 HO6          1.2100    -3.8540    -1.9390 ho         1 U17       0.411000
     46 HN3          2.5740    -0.9700     1.0890 hn         1 U17       0.321500
     47 H14          2.7570     1.5240    -0.4230 h1         1 U17       0.104700
     48 H151         4.7900    -0.0080     1.2620 hc         1 U17       0.055700
     49 H152         5.0540     1.5750     0.5550 hc         1 U17       0.055700
     50 H17          2.9110     0.9340     2.6260 hc         1 U17       0.048700
     51 H181         5.5900     2.3710     2.9150 hc         1 U17       0.036700
     52 H182         4.3810     2.1900     4.1840 hc         1 U17       0.036700
     53 H183         5.2040     0.7700     3.5440 hc         1 U17       0.036700
     54 H191         2.6930     3.4230     2.7950 hc         1 U17       0.036700
     55 H192         3.7830     3.6030     1.4200 hc         1 U17       0.036700
     56 H193         2.2040     2.8430     1.2150 hc         1 U17       0.036700
     57 H201         6.1530    -0.0510    -2.9140 h1         1 U17       0.049700
     58 H202         4.7150     0.1900    -3.9330 h1         1 U17       0.049700
     59 H203         5.7770     1.5610    -3.5550 h1         1 U17       0.049700
@<TRIPOS>BOND
     1     1     2 2   
     2     2     3 1   
     3     2    11 1   
     4     3     4 1   
     5     3    10 1   
     6     3    27 1   
     7     4     5 1   
     8     4     9 1   
     9     4    28 1   
    10     5     6 1   
    11     5    29 1   
    12     5    30 1   
    13     6     7 1   
    14     6    31 1   
    15     6    32 1   
    16     7     8 1   
    17     7    33 1   
    18     7    34 1   
    19     8    35 1   
    20     8    36 1   
    21     8    37 1   
    22     9    38 1   
    23     9    39 1   
    24    10    40 1   
    25    11    12 1   
    26    11    41 1   
    27    12    13 1   
    28    12    15 1   
    29    12    42 1   
    30    13    14 1   
    31    13    43 1   
    32    13    44 1   
    33    14    45 1   
    34    15    16 2   
    35    15    17 1   
    36    17    18 1   
    37    17    46 1   
    38    18    19 1   
    39    18    23 1   
    40    18    47 1   
    41    19    20 1   
    42    19    48 1   
    43    19    49 1   
    44    20    21 1   
    45    20    22 1   
    46    20    50 1   
    47    21    51 1   
    48    21    52 1   
    49    21    53 1   
    50    22    54 1   
    51    22    55 1   
    52    22    56 1   
    53    23    24 2   
    54    23    25 1   
    55    25    26 1   
    56    26    57 1   
    57    26    58 1   
    58    26    59 1   
@<TRIPOS>SUBSTRUCTURE
     1 U17         1 TEMP              0 ****  ****    0 ROOT
