@<TRIPOS>MOLECULE
U19
   26    27     1     0     0
SMALL
bcc


@<TRIPOS>ATOM
      1 F3           1.6390    -1.7870    -1.0930 f          1 U19      -0.239300
      2 C7           2.2600    -1.2850    -0.0150 c3         1 U19       0.728200
      3 F1           3.4890    -1.8120    -0.0110 f          1 U19      -0.239300
      4 F2           1.6320    -1.7820     1.0610 f          1 U19      -0.239300
      5 C3           2.2910     0.2150    -0.0190 ca         1 U19      -0.179300
      6 C6           3.5140     0.8750    -0.0150 ca         1 U19      -0.084000
      7 C2           3.5630     2.2600    -0.0180 ca         1 U19      -0.134000
      8 C1           1.0960     0.9490    -0.0250 ca         1 U19       0.166400
      9 C4           1.1600     2.3430    -0.0290 ca         1 U19      -0.127000
     10 C5           2.3820     2.9900    -0.0250 ca         1 U19      -0.098000
     11 N1          -0.1060     0.2230    -0.0290 ne         1 U19      -0.315400
     12 N2          -1.1390     0.9330    -0.0170 nf         1 U19      -0.090600
     13 C8          -2.3120     0.2600    -0.0200 cd         1 U19      -0.206000
     14 C10         -2.5820    -1.0910    -0.0340 cc         1 U19       0.332600
     15 N5          -1.8140    -2.1490    -0.0510 nv         1 U19      -0.763600
     16 N6          -4.0050    -1.2890    -0.0280 nc         1 U19      -0.167600
     17 N3          -4.5880    -0.2000    -0.0120 nd         1 U19      -0.244300
     18 C9          -3.6170     0.8820    -0.0050 cd         1 U19       0.596600
     19 N4          -3.9480     2.0960     0.0110 n2         1 U19      -0.641100
     20 H6           4.4400     0.3190    -0.0100 ha         1 U19       0.149000
     21 H2           4.5190     2.7640    -0.0140 ha         1 U19       0.140000
     22 H4           0.2450     2.9180    -0.0350 ha         1 U19       0.164000
     23 H5           2.4130     4.0720    -0.0270 ha         1 U19       0.139000
     24 HN51        -0.8130    -2.0410    -0.0570 hn         1 U19       0.472800
     25 HN52        -2.2100    -3.0770    -0.0590 hn         1 U19       0.472800
     26 HN42        -4.9600     2.1960     0.0180 hn         1 U19       0.409400
@<TRIPOS>BOND
     1     1     2 1   
     2     2     3 1   
     3     2     4 1   
     4     2     5 1   
     5     5     6 ar  
     6     5     8 ar  
     7     6     7 ar  
     8     6    20 1   
     9     7    10 ar  
    10     7    21 1   
    11     8     9 ar  
    12     8    11 1   
    13     9    10 ar  
    14     9    22 1   
    15    10    23 1   
    16    11    12 2   
    17    12    13 1   
    18    13    14 2   
    19    13    18 1   
    20    14    15 1   
    21    14    16 1   
    22    15    24 1   
    23    15    25 1   
    24    16    17 2   
    25    17    18 1   
    26    18    19 2   
    27    19    26 1   
@<TRIPOS>SUBSTRUCTURE
     1 U19         1 TEMP              0 ****  ****    0 ROOT
