@<TRIPOS>MOLECULE
U19
   26    27     1     0     0
SMALL
No Charge or Current Charge


@<TRIPOS>ATOM
      1 F3           1.6130    -1.9940    -0.1580 f          1 U19      -0.118000
      2 C7           2.0190    -1.1310     0.8020 c3         1 U19       0.364300
      3 F1           3.1620    -1.6450     1.3120 f          1 U19      -0.118000
      4 F2           1.1040    -1.1800     1.7970 f          1 U19      -0.118000
      5 C3           2.1960     0.2970     0.2550 ca         1 U19      -0.179300
      6 C6           3.4400     0.9620     0.3830 ca         1 U19      -0.066000
      7 C2           3.6150     2.2630    -0.1170 ca         1 U19      -0.116000
      8 C1           1.1230     0.9750    -0.3820 ca         1 U19       0.166400
      9 C4           1.3140     2.2770    -0.8840 ca         1 U19      -0.109000
     10 C5           2.5530     2.9220    -0.7520 ca         1 U19      -0.080000
     11 N1          -0.1420     0.3720    -0.5450 ne         1 U19      -0.315400
     12 N2          -1.0270     0.7100     0.2960 nf         1 U19      -0.090600
     13 C8          -2.2710     0.0990     0.1560 cd         1 U19      -0.206000
     14 C10         -2.6440    -1.0630    -0.4570 cc         1 U19       0.332600
     15 N5          -1.8860    -1.9730    -1.1210 nv         1 U19      -0.874000
     16 N6          -3.9930    -1.2930    -0.3390 nc         1 U19      -0.167600
     17 N3          -4.5310    -0.3060     0.3520 nd         1 U19      -0.244300
     18 C9          -3.5040     0.5480     0.6670 cd         1 U19       0.596600
     19 N4          -3.6790     1.6240     1.3480 n2         1 U19      -0.641100
     20 H6           4.2850     0.4780     0.8690 ha         1 U19       0.131000
     21 H2           4.5770     2.7600    -0.0120 ha         1 U19       0.122000
     22 H4           0.4910     2.7890    -1.3770 ha         1 U19       0.146000
     23 H5           2.6890     3.9290    -1.1410 ha         1 U19       0.121000
     24 HN51        -0.9400    -1.6970    -1.3720 hn         1 U19       0.528000
     25 HN52        -2.3400    -2.6490    -1.7290 hn         1 U19       0.528000
     26 HN42        -4.6740     1.7060     1.5910 hn         1 U19       0.409400
@<TRIPOS>BOND
     1     1     2 1   
     2     2     3 1   
     3     2     4 1   
     4     2     5 1   
     5     5     6 ar  
     6     5     8 ar  
     7     6     7 ar  
     8     6    20 1   
     9     7    10 ar  
    10     7    21 1   
    11     8     9 ar  
    12     8    11 1   
    13     9    10 ar  
    14     9    22 1   
    15    10    23 1   
    16    11    12 2   
    17    12    13 1   
    18    13    14 2   
    19    13    18 1   
    20    14    15 1   
    21    14    16 1   
    22    15    24 1   
    23    15    25 1   
    24    16    17 2   
    25    17    18 1   
    26    18    19 2   
    27    19    26 1   
@<TRIPOS>SUBSTRUCTURE
     1 U19         1 TEMP              0 ****  ****    0 ROOT
