@<TRIPOS>MOLECULE
U1B
   32    33     1     0     0
SMALL
No Charge or Current Charge


@<TRIPOS>ATOM
      1 C10        -20.5860   -10.5570    -4.4310 c          1 U1B       0.578500
      2 C13        -20.9270    -6.7570    -4.7520 ca         1 U1B      -0.038000
      3 C02        -23.0050    -9.5320    -9.6990 c6         1 U1B       0.144300
      4 C03        -22.1980    -8.8890   -10.8530 c6         1 U1B      -0.074400
      5 C04        -20.9490    -8.1570   -10.3020 c6         1 U1B      -0.107400
      6 C05        -21.3330    -7.0940    -9.2440 c6         1 U1B       0.224800
      7 C07        -21.6850    -7.7830    -6.8350 ca         1 U1B       0.391000
      8 C08        -21.4020    -9.0490    -6.2900 ca         1 U1B      -0.156000
      9 C09        -20.8840    -9.1860    -4.9850 ca         1 U1B      -0.128600
     10 C12        -20.6460    -8.0260    -4.2200 ca         1 U1B      -0.104000
     11 C14        -21.4540    -6.6350    -6.0550 ca         1 U1B      -0.212200
     12 C18        -23.3600    -8.4590    -8.6200 c6         1 U1B       0.181800
     13 N06        -22.1560    -7.7000    -8.1620 nh         1 U1B      -0.823400
     14 N15        -21.7740    -5.2960    -6.5830 no         1 U1B       0.692200
     15 O11        -20.1330   -10.7500    -3.3070 o          1 U1B      -0.495100
     16 O16        -22.9570    -5.0520    -6.8560 o          1 U1B      -0.393500
     17 O17        -20.9020    -4.4240    -6.4770 o          1 U1B      -0.393500
     18 H1         -20.8040   -11.4110    -5.1100 h4         1 U1B      -0.005800
     19 H2         -20.7460    -5.8700    -4.1460 ha         1 U1B       0.148000
     20 H3         -22.3690   -10.2940    -9.2260 h1         1 U1B       0.029700
     21 H4         -22.8310    -8.1780   -11.4030 hc         1 U1B       0.060200
     22 H5         -21.8910    -9.6600   -11.5720 hc         1 U1B       0.060200
     23 H6         -20.2620    -8.8860    -9.8510 hc         1 U1B       0.054200
     24 H7         -20.4000    -7.6780   -11.1240 hc         1 U1B       0.054200
     25 H8         -20.4140    -6.6500    -8.8320 h1         1 U1B       0.062700
     26 H9         -21.8920    -6.2780    -9.7280 h1         1 U1B       0.062700
     27 H10        -21.5710    -9.9340    -6.8970 ha         1 U1B       0.121000
     28 H11        -20.2440    -8.1030    -3.2110 ha         1 U1B       0.147000
     29 H12        -24.0980    -7.7570    -9.0360 h1         1 U1B       0.062700
     30 H13        -23.8450    -8.9550    -7.7660 h1         1 U1B       0.062700
     31 O01        -24.1870   -10.1550   -10.2250 oh         1 U1B      -0.648000
     32 H14        -24.5510   -10.7280    -9.5140 ho         1 U1B       0.444000
@<TRIPOS>BOND
     1     1     9 1   
     2     1    15 2   
     3     1    18 1   
     4     2    10 ar  
     5     2    11 ar  
     6     2    19 1   
     7     3     4 1   
     8     3    12 1   
     9     3    20 1   
    10     3    31 1   
    11     4     5 1   
    12     4    21 1   
    13     4    22 1   
    14     5     6 1   
    15     5    23 1   
    16     5    24 1   
    17     6    13 1   
    18     6    25 1   
    19     6    26 1   
    20     7     8 ar  
    21     7    11 ar  
    22     7    13 1   
    23     8     9 ar  
    24     8    27 1   
    25     9    10 ar  
    26    10    28 1   
    27    11    14 1   
    28    12    13 1   
    29    12    29 1   
    30    12    30 1   
    31    14    16 1   
    32    14    17 1   
    33    31    32 1   
@<TRIPOS>SUBSTRUCTURE
     1 U1B         1 TEMP              0 ****  ****    0 ROOT
