@<TRIPOS>MOLECULE
U1B
   32    33     1     0     0
SMALL
bcc


@<TRIPOS>ATOM
      1 C10        -21.0180   -10.5310    -4.4050 c          1 U1B       0.578500
      2 C13        -20.6120    -6.8430    -4.9370 ca         1 U1B      -0.056000
      3 C02        -22.7510    -9.6210    -9.6240 c6         1 U1B       0.121100
      4 C03        -22.1190    -8.8620   -10.7770 c6         1 U1B      -0.074400
      5 C04        -21.0790    -7.8790   -10.2540 c6         1 U1B      -0.107400
      6 C05        -21.6610    -6.9340    -9.2070 c6         1 U1B       0.224800
      7 C07        -21.7640    -7.7960    -6.8890 ca         1 U1B       0.252600
      8 C08        -21.6700    -9.0390    -6.2390 ca         1 U1B      -0.174000
      9 C09        -21.0810    -9.1770    -4.9960 ca         1 U1B      -0.128600
     10 C12        -20.5260    -8.0780    -4.3380 ca         1 U1B      -0.122000
     11 C14        -21.2560    -6.7010    -6.1640 ca         1 U1B      -0.212200
     12 C18        -23.3090    -8.6180    -8.6120 c6         1 U1B       0.181800
     13 N06        -22.3050    -7.6850    -8.1400 nh         1 U1B      -0.685000
     14 N15        -21.4680    -5.3320    -6.6070 no         1 U1B       0.312200
     15 O11        -20.5060   -10.7800    -3.3420 o          1 U1B      -0.495100
     16 O16        -22.5550    -5.0410    -7.0460 o          1 U1B      -0.203500
     17 O17        -20.5600    -4.5460    -6.4630 o          1 U1B      -0.203500
     18 H1         -21.4850   -11.3230    -5.0160 h4         1 U1B      -0.005800
     19 H2         -20.2220    -5.9710    -4.4310 ha         1 U1B       0.166000
     20 H3         -21.9690   -10.2200    -9.1310 h1         1 U1B       0.029700
     21 H4         -22.9020    -8.3180   -11.3160 hc         1 U1B       0.060200
     22 H5         -21.6630    -9.5570   -11.4850 hc         1 U1B       0.060200
     23 H6         -20.2410    -8.4260    -9.8120 hc         1 U1B       0.054200
     24 H7         -20.6720    -7.2860   -11.0760 hc         1 U1B       0.054200
     25 H8         -20.8520    -6.3230    -8.8100 h1         1 U1B       0.062700
     26 H9         -22.3870    -6.2590    -9.6710 h1         1 U1B       0.062700
     27 H10        -22.0340    -9.9280    -6.7400 ha         1 U1B       0.139000
     28 H11        -20.0500    -8.1870    -3.3730 ha         1 U1B       0.165000
     29 H12        -24.1030    -8.0410    -9.1020 h1         1 U1B       0.062700
     30 H13        -23.7700    -9.1260    -7.7640 h1         1 U1B       0.062700
     31 O01        -23.7730   -10.4470   -10.1300 oh         1 U1B      -0.585800
     32 H14        -24.0920   -11.0080    -9.4160 ho         1 U1B       0.405000
@<TRIPOS>BOND
     1     1     9 1   
     2     1    15 2   
     3     1    18 1   
     4     2    10 ar  
     5     2    11 ar  
     6     2    19 1   
     7     3     4 1   
     8     3    12 1   
     9     3    20 1   
    10     3    31 1   
    11     4     5 1   
    12     4    21 1   
    13     4    22 1   
    14     5     6 1   
    15     5    23 1   
    16     5    24 1   
    17     6    13 1   
    18     6    25 1   
    19     6    26 1   
    20     7     8 ar  
    21     7    11 ar  
    22     7    13 1   
    23     8     9 ar  
    24     8    27 1   
    25     9    10 ar  
    26    10    28 1   
    27    11    14 1   
    28    12    13 1   
    29    12    29 1   
    30    12    30 1   
    31    14    16 1   
    32    14    17 1   
    33    31    32 1   
@<TRIPOS>SUBSTRUCTURE
     1 U1B         1 TEMP              0 ****  ****    0 ROOT
