@<TRIPOS>MOLECULE
U1D
   30    31     1     0     0
SMALL
No Charge or Current Charge


@<TRIPOS>ATOM
      1 N1           8.4700    -3.8200    21.2400 ns         1 U1D      -0.366500
      2 C4          10.6490    -2.1650    22.1300 cc         1 U1D      -0.082000
      3 C5          11.5460    -1.2360    22.7130 cc         1 U1D      -0.117300
      4 C6          13.0080    -1.1750    22.3350 c6         1 U1D      -0.009100
      5 C7          13.8100    -0.3530    23.3790 c6         1 U1D      -0.072400
      6 C8          13.0740     0.9590    23.7580 c6         1 U1D      -0.071400
      7 C10         10.9510    -0.4030    23.6240 cd         1 U1D      -0.207300
      8 N            7.4820    -4.6650    20.6360 ns         1 U1D      -0.378500
      9 C            6.7220    -2.8570    19.0930 c3         1 U1D      -0.172100
     10 O            5.6970    -5.0290    19.2880 o          1 U1D      -0.581100
     11 C1           6.5710    -4.2660    19.6700 c          1 U1D       0.619100
     12 C2           8.1910    -2.8570    22.1960 c          1 U1D       0.636700
     13 C3           9.3580    -2.0480    22.6040 cd         1 U1D      -0.316600
     14 C9          11.6920     0.6670    24.3980 c6         1 U1D      -0.007100
     15 O1           7.0690    -2.6970    22.6580 o          1 U1D      -0.577100
     16 S            9.2230    -0.7560    23.8110 ss         1 U1D       0.325000
     17 H4           9.4170    -3.8770    20.8790 hn         1 U1D       0.338500
     18 H5          10.9830    -2.8810    21.3860 ha         1 U1D       0.127000
     19 H6          13.4370    -2.1830    22.2500 hc         1 U1D       0.049700
     20 H7          13.1170    -0.7100    21.3460 hc         1 U1D       0.049700
     21 H8          13.9630    -0.9580    24.2830 hc         1 U1D       0.044700
     22 H9          14.8100    -0.1260    22.9840 hc         1 U1D       0.044700
     23 H10         13.6870     1.5520    24.4500 hc         1 U1D       0.045200
     24 H11         12.9390     1.5730    22.8560 hc         1 U1D       0.045200
     25 H3           7.3510    -5.5870    21.0440 hn         1 U1D       0.329500
     26 H            6.0260    -2.6660    18.2690 hc         1 U1D       0.064033
     27 H1           6.5870    -2.1260    19.8970 hc         1 U1D       0.064033
     28 H2           7.7630    -2.6940    18.7930 hc         1 U1D       0.064033
     29 H12         11.8350     0.3360    25.4360 hc         1 U1D       0.054700
     30 H13         11.1020     1.5930    24.4480 hc         1 U1D       0.054700
@<TRIPOS>BOND
     1     1     8 1   
     2     1    12 1   
     3     1    17 1   
     4     2     3 1   
     5     2    13 2   
     6     2    18 1   
     7     3     4 1   
     8     3     7 2   
     9     4     5 1   
    10     4    19 1   
    11     4    20 1   
    12     5     6 1   
    13     5    21 1   
    14     5    22 1   
    15     6    14 1   
    16     6    23 1   
    17     6    24 1   
    18     7    14 1   
    19     7    16 1   
    20     8    11 1   
    21     8    25 1   
    22     9    11 1   
    23     9    26 1   
    24     9    27 1   
    25     9    28 1   
    26    10    11 2   
    27    12    13 1   
    28    12    15 2   
    29    13    16 1   
    30    14    29 1   
    31    14    30 1   
@<TRIPOS>SUBSTRUCTURE
     1 U1D         1 TEMP              0 ****  ****    0 ROOT
