@<TRIPOS>MOLECULE
U1D
   30    31     1     0     0
SMALL
abcg2


@<TRIPOS>ATOM
      1 N1           8.4010    -3.7440    21.1480 ns         1 U1D      -0.366500
      2 C4          10.7380    -2.0820    21.9380 cc         1 U1D      -0.082000
      3 C5          11.6260    -1.1900    22.5910 cc         1 U1D      -0.117300
      4 C6          13.0810    -1.0110    22.2730 c6         1 U1D      -0.009100
      5 C7          13.8070    -0.3150    23.4210 c6         1 U1D      -0.072400
      6 C8          13.0350     0.9110    23.8980 c6         1 U1D      -0.071400
      7 C10         11.0030    -0.4750    23.5800 cd         1 U1D      -0.207300
      8 N            7.3590    -4.5510    20.8210 ns         1 U1D      -0.378500
      9 C            6.7750    -3.0310    19.0090 c3         1 U1D      -0.172100
     10 O            5.4820    -4.9420    19.6720 o          1 U1D      -0.581100
     11 C1           6.4630    -4.2420    19.8430 c          1 U1D       0.619100
     12 C2           8.2490    -2.7640    22.0810 c          1 U1D       0.636700
     13 C3           9.4660    -2.0320    22.4390 cd         1 U1D      -0.316600
     14 C9          11.6720     0.5210    24.4710 c6         1 U1D      -0.007100
     15 O1           7.1720    -2.4990    22.5850 o          1 U1D      -0.577100
     16 S            9.3430    -0.8800    23.7130 ss         1 U1D       0.325000
     17 H4           9.3140    -4.0380    20.8380 hn         1 U1D       0.338500
     18 H5          11.0520    -2.7260    21.1270 ha         1 U1D       0.127000
     19 H6          13.5390    -1.9800    22.0600 hc         1 U1D       0.049700
     20 H7          13.1810    -0.4180    21.3580 hc         1 U1D       0.049700
     21 H8          13.9290    -1.0140    24.2540 hc         1 U1D       0.044700
     22 H9          14.8100    -0.0290    23.1000 hc         1 U1D       0.044700
     23 H10         13.6030     1.4490    24.6580 hc         1 U1D       0.045200
     24 H11         12.8950     1.6020    23.0610 hc         1 U1D       0.045200
     25 H3           7.1410    -5.3090    21.4540 hn         1 U1D       0.329500
     26 H            6.0580    -2.9620    18.1950 hc         1 U1D       0.064033
     27 H1           6.7120    -2.1180    19.6020 hc         1 U1D       0.064033
     28 H2           7.7810    -3.0780    18.5930 hc         1 U1D       0.064033
     29 H12         11.7990     0.0860    25.4670 hc         1 U1D       0.054700
     30 H13         11.0460     1.4070    24.6020 hc         1 U1D       0.054700
@<TRIPOS>BOND
     1     1     8 1   
     2     1    12 1   
     3     1    17 1   
     4     2     3 1   
     5     2    13 2   
     6     2    18 1   
     7     3     4 1   
     8     3     7 2   
     9     4     5 1   
    10     4    19 1   
    11     4    20 1   
    12     5     6 1   
    13     5    21 1   
    14     5    22 1   
    15     6    14 1   
    16     6    23 1   
    17     6    24 1   
    18     7    14 1   
    19     7    16 1   
    20     8    11 1   
    21     8    25 1   
    22     9    11 1   
    23     9    26 1   
    24     9    27 1   
    25     9    28 1   
    26    10    11 2   
    27    12    13 1   
    28    12    15 2   
    29    13    16 1   
    30    14    29 1   
    31    14    30 1   
@<TRIPOS>SUBSTRUCTURE
     1 U1D         1 TEMP              0 ****  ****    0 ROOT
