@<TRIPOS>MOLECULE
U1E
   34    35     1     0     0
SMALL
No Charge or Current Charge


@<TRIPOS>ATOM
      1 C10         -8.4050     2.1550     1.1200 ca         1 U1E      -0.074000
      2 C15        -12.0620     0.1800    -0.2660 c3         1 U1E       0.190350
      3 C01        -14.0440     4.5750    -0.7240 c3         1 U1E       0.190350
      4 C03        -14.1660     2.7190     0.9750 c3         1 U1E       0.190350
      5 C04        -12.1610     4.2170     0.9030 ca         1 U1E       0.311000
      6 C05        -12.2420     5.4630     1.5570 ca         1 U1E      -0.193500
      7 C06        -11.1510     6.0060     2.2390 ca         1 U1E      -0.074000
      8 C07         -9.9520     5.2960     2.2870 ca         1 U1E      -0.138000
      9 C08         -9.8330     4.0520     1.6430 ca         1 U1E      -0.002000
     10 C09         -8.5970     3.3900     1.7410 ca         1 U1E      -0.138000
     11 C11         -9.4490     1.5880     0.3850 ca         1 U1E      -0.193500
     12 C12        -10.7000     2.2260     0.2620 ca         1 U1E       0.311000
     13 C14        -11.8930     2.0610    -1.9330 c3         1 U1E       0.190350
     14 C16        -10.9240     3.4850     0.9190 ca         1 U1E      -0.064000
     15 N02        -13.3700     3.7730     0.3170 nh         1 U1E      -0.782400
     16 N13        -11.6280     1.5580    -0.5710 nh         1 U1E      -0.782400
     17 H1          -7.4460     1.6460     1.1960 ha         1 U1E       0.110000
     18 H2         -11.9790    -0.0190     0.8120 h1         1 U1E       0.032283
     19 H3         -13.1120     0.0350    -0.5550 h1         1 U1E       0.032283
     20 H4         -11.4440    -0.5490    -0.8060 h1         1 U1E       0.032283
     21 H5         -13.3140     5.1950    -1.2620 h1         1 U1E       0.032283
     22 H6         -14.5330     3.9190    -1.4570 h1         1 U1E       0.032283
     23 H7         -14.8020     5.2310    -0.2760 h1         1 U1E       0.032283
     24 H8         -13.5440     2.1450     1.6750 h1         1 U1E       0.032283
     25 H9         -15.0010     3.1600     1.5350 h1         1 U1E       0.032283
     26 H10        -14.5690     2.0200     0.2290 h1         1 U1E       0.032283
     27 H11        -13.1800     6.0120     1.5520 ha         1 U1E       0.112000
     28 H12        -11.2390     6.9670     2.7410 ha         1 U1E       0.110000
     29 H13         -9.1080     5.7160     2.8300 ha         1 U1E       0.113000
     30 H14         -7.7780     3.8340     2.3020 ha         1 U1E       0.113000
     31 H15         -9.2770     0.6400    -0.1180 ha         1 U1E       0.112000
     32 H16        -11.5930     3.1140    -2.0210 h1         1 U1E       0.032283
     33 H17        -11.3310     1.4770    -2.6740 h1         1 U1E       0.032283
     34 H18        -12.9640     1.9920    -2.1660 h1         1 U1E       0.032283
@<TRIPOS>BOND
     1     1    10 ar  
     2     1    11 ar  
     3     1    17 1   
     4     2    16 1   
     5     2    18 1   
     6     2    19 1   
     7     2    20 1   
     8     3    15 1   
     9     3    21 1   
    10     3    22 1   
    11     3    23 1   
    12     4    15 1   
    13     4    24 1   
    14     4    25 1   
    15     4    26 1   
    16     5     6 ar  
    17     5    14 ar  
    18     5    15 1   
    19     6     7 ar  
    20     6    27 1   
    21     7     8 ar  
    22     7    28 1   
    23     8     9 ar  
    24     8    29 1   
    25     9    10 ar  
    26     9    14 ar  
    27    10    30 1   
    28    11    12 ar  
    29    11    31 1   
    30    12    14 ar  
    31    12    16 1   
    32    13    16 1   
    33    13    32 1   
    34    13    33 1   
    35    13    34 1   
@<TRIPOS>SUBSTRUCTURE
     1 U1E         1 TEMP              0 ****  ****    0 ROOT
