@<TRIPOS>MOLECULE
U1E
   34    35     1     0     0
SMALL
abcg2


@<TRIPOS>ATOM
      1 C10         -8.7480     1.9000     1.6220 ca         1 U1E      -0.074000
      2 C15        -11.7450     0.1650    -0.7580 c3         1 U1E       0.190350
      3 C01        -14.3740     4.5750    -0.2650 c3         1 U1E       0.190350
      4 C03        -13.9400     2.6490     1.0950 c3         1 U1E       0.190350
      5 C04        -12.1750     4.2560     0.7220 ca         1 U1E       0.311000
      6 C05        -12.1160     5.5970     1.0480 ca         1 U1E      -0.193500
      7 C06        -10.9750     6.1700     1.6320 ca         1 U1E      -0.074000
      8 C07         -9.9070     5.3860     1.9560 ca         1 U1E      -0.138000
      9 C08         -9.8990     4.0150     1.6050 ca         1 U1E      -0.002000
     10 C09         -8.7960     3.2150     1.9830 ca         1 U1E      -0.138000
     11 C11         -9.7390     1.3650     0.7840 ca         1 U1E      -0.193500
     12 C12        -10.8190     2.1140     0.3580 ca         1 U1E       0.311000
     13 C14        -11.8170     2.3030    -1.8360 c3         1 U1E       0.190350
     14 C16        -10.9890     3.4490     0.8800 ca         1 U1E      -0.064000
     15 N02        -13.3660     3.6910     0.2660 nh         1 U1E      -0.782400
     16 N13        -11.7170     1.5950    -0.5740 nh         1 U1E      -0.782400
     17 H1          -7.9170     1.2760     1.9240 ha         1 U1E       0.110000
     18 H2         -11.8090    -0.3470     0.2020 h1         1 U1E       0.032283
     19 H3         -12.6360    -0.0960    -1.3320 h1         1 U1E       0.032283
     20 H4         -10.8780    -0.2340    -1.3040 h1         1 U1E       0.032283
     21 H5         -13.9390     5.2560    -0.9960 h1         1 U1E       0.032283
     22 H6         -15.1280     3.9750    -0.7760 h1         1 U1E       0.032283
     23 H7         -14.8940     5.1730     0.4970 h1         1 U1E       0.032283
     24 H8         -13.1710     2.0300     1.5470 h1         1 U1E       0.032283
     25 H9         -14.5500     3.0720     1.9050 h1         1 U1E       0.032283
     26 H10        -14.5790     2.0010     0.4940 h1         1 U1E       0.032283
     27 H11        -12.9870     6.2230     0.9130 ha         1 U1E       0.112000
     28 H12        -10.9790     7.2240     1.8770 ha         1 U1E       0.110000
     29 H13         -9.0500     5.7970     2.4760 ha         1 U1E       0.113000
     30 H14         -8.0000     3.6630     2.5650 ha         1 U1E       0.113000
     31 H15         -9.6070     0.3550     0.4210 ha         1 U1E       0.112000
     32 H16        -11.7250     3.3760    -1.7020 h1         1 U1E       0.032283
     33 H17        -11.0340     1.9830    -2.5380 h1         1 U1E       0.032283
     34 H18        -12.7850     2.1070    -2.2990 h1         1 U1E       0.032283
@<TRIPOS>BOND
     1     1    10 ar  
     2     1    11 ar  
     3     1    17 1   
     4     2    16 1   
     5     2    18 1   
     6     2    19 1   
     7     2    20 1   
     8     3    15 1   
     9     3    21 1   
    10     3    22 1   
    11     3    23 1   
    12     4    15 1   
    13     4    24 1   
    14     4    25 1   
    15     4    26 1   
    16     5     6 ar  
    17     5    14 ar  
    18     5    15 1   
    19     6     7 ar  
    20     6    27 1   
    21     7     8 ar  
    22     7    28 1   
    23     8     9 ar  
    24     8    29 1   
    25     9    10 ar  
    26     9    14 ar  
    27    10    30 1   
    28    11    12 ar  
    29    11    31 1   
    30    12    14 ar  
    31    12    16 1   
    32    13    16 1   
    33    13    32 1   
    34    13    33 1   
    35    13    34 1   
@<TRIPOS>SUBSTRUCTURE
     1 U1E         1 TEMP              0 ****  ****    0 ROOT
