@<TRIPOS>MOLECULE
U1F
   38    39     1     0     0
SMALL
abcg2


@<TRIPOS>ATOM
      1 C1          19.9410     1.5430    25.7420 c          1 U1F       0.594300
      2 C10         20.8460     1.0190    22.1310 ca         1 U1F      -0.069300
      3 C11         20.8380    -0.3740    22.0660 ca         1 U1F      -0.072000
      4 C12         20.5520    -1.1660    23.1730 ca         1 U1F      -0.069300
      5 C13         20.2790    -0.5350    24.3830 ca         1 U1F      -0.075000
      6 C14         17.6770     1.4190    30.3470 c3         1 U1F       0.135900
      7 C15         21.1300     1.8370    20.9050 c3         1 U1F      -0.053300
      8 C16         20.5650    -2.6630    23.0780 c3         1 U1F      -0.053300
      9 C2          20.2530     0.8730    27.0410 ca         1 U1F      -0.130600
     10 C3          19.3980     1.1040    28.1420 ca         1 U1F      -0.042000
     11 C4          19.6580     0.5720    29.3780 ca         1 U1F       0.094100
     12 C5          21.3900     0.1440    27.2040 ca         1 U1F      -0.034000
     13 C6          21.7020    -0.3750    28.4820 ca         1 U1F       0.008000
     14 C7          20.8430    -0.1880    29.5970 ca         1 U1F       0.281100
     15 C8          20.2860     0.8550    24.4760 ca         1 U1F      -0.183600
     16 C9          20.5580     1.6250    23.3460 ca         1 U1F      -0.075000
     17 N1          22.8900    -1.0860    28.5610 nh         1 U1F       0.249300
     18 O1          19.4170     2.6360    25.7550 o          1 U1F      -0.478100
     19 O2          18.8940     0.6970    30.4590 os         1 U1F      -0.307100
     20 O3          23.5810    -1.3530    27.6420 o          1 U1F      -0.172000
     21 O4          23.2360    -1.4540    29.7710 oh         1 U1F      -0.425300
     22 O5          20.9790    -0.6390    30.8130 oh         1 U1F      -0.428100
     23 H1          21.0590    -0.8560    21.1190 ha         1 U1F       0.127000
     24 H2          20.0320    -1.1410    25.2470 ha         1 U1F       0.119000
     25 H3          17.2110     1.3800    31.3270 h1         1 U1F       0.066700
     26 H4          17.8520     2.4620    30.0760 h1         1 U1F       0.066700
     27 H5          17.0080     0.9630    29.6130 h1         1 U1F       0.066700
     28 H6          20.2420     1.9060    20.2740 hc         1 U1F       0.052700
     29 H7          21.4300     2.8520    21.1600 hc         1 U1F       0.052700
     30 H8          21.9200     1.3900    20.3010 hc         1 U1F       0.052700
     31 H9          21.5650    -3.0550    23.2710 hc         1 U1F       0.052700
     32 H10         19.8930    -3.1160    23.8060 hc         1 U1F       0.052700
     33 H11         20.2700    -3.0040    22.0860 hc         1 U1F       0.052700
     34 H12         18.5100     1.7020    27.9850 ha         1 U1F       0.176000
     35 H13         22.0740    -0.0130    26.3820 ha         1 U1F       0.177000
     36 H14         20.5600     2.7060    23.4200 ha         1 U1F       0.119000
     37 H15         21.7860    -1.1490    30.9720 ho         1 U1F       0.510000
     38 H16         24.0570    -1.9940    29.7220 ho         1 U1F       0.560000
@<TRIPOS>BOND
     1     1     9 1   
     2     1    15 1   
     3     1    18 2   
     4     2     3 ar  
     5     2     7 1   
     6     2    16 ar  
     7     3     4 ar  
     8     3    23 1   
     9     4     5 ar  
    10     4     8 1   
    11     5    15 ar  
    12     5    24 1   
    13     6    19 1   
    14     6    25 1   
    15     6    26 1   
    16     6    27 1   
    17     7    28 1   
    18     7    29 1   
    19     7    30 1   
    20     8    31 1   
    21     8    32 1   
    22     8    33 1   
    23     9    10 ar  
    24     9    12 ar  
    25    10    11 ar  
    26    10    34 1   
    27    11    14 ar  
    28    11    19 1   
    29    12    13 ar  
    30    12    35 1   
    31    13    14 ar  
    32    13    17 1   
    33    14    22 1   
    34    15    16 ar  
    35    16    36 1   
    36    17    20 1   
    37    17    21 1   
    38    21    38 1   
    39    22    37 1   
@<TRIPOS>SUBSTRUCTURE
     1 U1F         1 TEMP              0 ****  ****    0 ROOT
