@<TRIPOS>MOLECULE
U1F
   38    39     1     0     0
SMALL
No Charge or Current Charge


@<TRIPOS>ATOM
      1 C1          19.7570     1.5490    25.7300 c          1 U1F       0.594300
      2 C10         20.8560     0.9700    22.1080 ca         1 U1F      -0.069300
      3 C11         20.9570    -0.4320    22.0670 ca         1 U1F      -0.072000
      4 C12         20.6620    -1.2010    23.2070 ca         1 U1F      -0.069300
      5 C13         20.2750    -0.5600    24.3980 ca         1 U1F      -0.075000
      6 C14         17.6210     1.5050    30.5260 c3         1 U1F       0.135900
      7 C15         21.1620     1.7970    20.8670 c3         1 U1F      -0.053300
      8 C16         20.7630    -2.7180    23.1550 c3         1 U1F      -0.053300
      9 C2          20.1520     0.9600    27.0660 ca         1 U1F      -0.130600
     10 C3          19.3170     1.1450    28.1830 ca         1 U1F      -0.042000
     11 C4          19.6770     0.6180    29.4430 ca         1 U1F       0.094100
     12 C5          21.3690     0.2620    27.2230 ca         1 U1F      -0.034000
     13 C6          21.7540    -0.2890    28.4690 ca         1 U1F       0.008000
     14 C7          20.8890    -0.1010    29.5880 ca         1 U1F       0.281100
     15 C8          20.1850     0.8490    24.4600 ca         1 U1F      -0.183600
     16 C9          20.4630     1.6040    23.3010 ca         1 U1F      -0.075000
     17 N1          23.0010    -0.9850    28.5560 nh         1 U1F       0.249300
     18 O1          19.0980     2.5810    25.6780 o          1 U1F      -0.478100
     19 O2          18.8700     0.7880    30.5610 os         1 U1F      -0.307100
     20 O3          23.9430    -0.6250    27.7920 o          1 U1F      -0.172000
     21 O4          23.1100    -1.9790    29.5430 oh         1 U1F      -0.425300
     22 O5          21.2150    -0.5690    30.8400 oh         1 U1F      -0.428100
     23 H1          21.2580    -0.9250    21.1450 ha         1 U1F       0.127000
     24 H2          20.0320    -1.1640    25.2690 ha         1 U1F       0.119000
     25 H3          17.1590     1.5120    31.5210 h1         1 U1F       0.066700
     26 H4          17.7740     2.5480    30.2190 h1         1 U1F       0.066700
     27 H5          16.9150     1.0320    29.8310 h1         1 U1F       0.066700
     28 H6          20.2560     1.9550    20.2710 hc         1 U1F       0.052700
     29 H7          21.5640     2.7820    21.1320 hc         1 U1F       0.052700
     30 H8          21.9020     1.3010    20.2280 hc         1 U1F       0.052700
     31 H9          21.7510    -3.0560    23.4900 hc         1 U1F       0.052700
     32 H10         20.0120    -3.1910    23.7990 hc         1 U1F       0.052700
     33 H11         20.6070    -3.0970    22.1380 hc         1 U1F       0.052700
     34 H12         18.3890     1.6980    28.0570 ha         1 U1F       0.176000
     35 H13         22.0270     0.1490    26.3620 ha         1 U1F       0.177000
     36 H14         20.3820     2.6890    23.3280 ha         1 U1F       0.119000
     37 H15         22.0230    -1.1230    30.7550 ho         1 U1F       0.510000
     38 H16         23.2370    -2.7560    28.9510 ho         1 U1F       0.560000
@<TRIPOS>BOND
     1     1     9 1   
     2     1    15 1   
     3     1    18 2   
     4     2     3 ar  
     5     2     7 1   
     6     2    16 ar  
     7     3     4 ar  
     8     3    23 1   
     9     4     5 ar  
    10     4     8 1   
    11     5    15 ar  
    12     5    24 1   
    13     6    19 1   
    14     6    25 1   
    15     6    26 1   
    16     6    27 1   
    17     7    28 1   
    18     7    29 1   
    19     7    30 1   
    20     8    31 1   
    21     8    32 1   
    22     8    33 1   
    23     9    10 ar  
    24     9    12 ar  
    25    10    11 ar  
    26    10    34 1   
    27    11    14 ar  
    28    11    19 1   
    29    12    13 ar  
    30    12    35 1   
    31    13    14 ar  
    32    13    17 1   
    33    14    22 1   
    34    15    16 ar  
    35    16    36 1   
    36    17    20 1   
    37    17    21 1   
    38    21    38 1   
    39    22    37 1   
@<TRIPOS>SUBSTRUCTURE
     1 U1F         1 TEMP              0 ****  ****    0 ROOT
