@<TRIPOS>MOLECULE
U1G
   30    31     1     0     0
SMALL
No Charge or Current Charge


@<TRIPOS>ATOM
      1 N1           7.6210    -2.8350    23.9510 n          1 U1G      -0.407800
      2 C4           8.6870    -2.4040    23.0110 c6         1 U1G       0.079500
      3 C5           8.1400    -2.1390    21.5820 c6         1 U1G       0.074500
      4 C6           7.1000    -2.0270    24.9950 c          1 U1G       0.541600
      5 C7           8.0450    -1.1350    25.7460 cc         1 U1G       0.061500
      6 C8           9.4200    -1.1710    25.7950 cd         1 U1G      -0.144000
      7 C10          8.6970     0.4180    27.1950 cc         1 U1G       0.144900
      8 N            7.1910    -3.1680    21.0460 n          1 U1G      -0.419800
      9 C            7.7770    -2.5570    18.6530 c3         1 U1G      -0.177100
     10 O            5.7860    -3.7060    19.3080 o          1 U1G      -0.599100
     11 C1           6.8220    -3.1700    19.6800 c          1 U1G       0.610100
     12 C2           6.2500    -3.7400    22.0570 c6         1 U1G       0.074500
     13 C3           6.8860    -4.0120    23.4370 c6         1 U1G       0.079500
     14 C9           9.8280    -0.1740    26.7050 cd         1 U1G      -0.201000
     15 O1           5.9080    -2.0850    25.2770 o          1 U1G      -0.571100
     16 O2           7.5890    -0.1770    26.6330 os         1 U1G      -0.197000
     17 H7           9.1690    -1.4770    23.3390 h1         1 U1G       0.066200
     18 H8           9.4580    -3.1860    22.9650 h1         1 U1G       0.066200
     19 H9           7.6200    -1.1700    21.5870 h1         1 U1G       0.064200
     20 H10          9.0050    -2.0330    20.9130 h1         1 U1G       0.064200
     21 H11         10.0780    -1.8590    25.2740 ha         1 U1G       0.143000
     22 H13          8.5410     1.2110    27.9130 h4         1 U1G       0.058100
     23 H            7.4400    -2.7120    17.6220 hc         1 U1G       0.060700
     24 H2           7.9020    -1.4900    18.8690 hc         1 U1G       0.060700
     25 H1           8.7850    -2.9570    18.8120 hc         1 U1G       0.060700
     26 H3           5.4130    -3.0400    22.1870 h1         1 U1G       0.064200
     27 H4           5.8290    -4.6830    21.6790 h1         1 U1G       0.064200
     28 H5           6.1080    -4.3260    24.1470 h1         1 U1G       0.066200
     29 H6           7.5890    -4.8520    23.3440 h1         1 U1G       0.066200
     30 H12         10.8470     0.0700    26.9870 ha         1 U1G       0.146000
@<TRIPOS>BOND
     1     1     2 1   
     2     1     4 1   
     3     1    13 1   
     4     2     3 1   
     5     2    17 1   
     6     2    18 1   
     7     3     8 1   
     8     3    19 1   
     9     3    20 1   
    10     4     5 1   
    11     4    15 2   
    12     5     6 2   
    13     5    16 1   
    14     6    14 1   
    15     6    21 1   
    16     7    14 2   
    17     7    16 1   
    18     7    22 1   
    19     8    11 1   
    20     8    12 1   
    21     9    11 1   
    22     9    23 1   
    23     9    24 1   
    24     9    25 1   
    25    10    11 2   
    26    12    13 1   
    27    12    26 1   
    28    12    27 1   
    29    13    28 1   
    30    13    29 1   
    31    14    30 1   
@<TRIPOS>SUBSTRUCTURE
     1 U1G         1 TEMP              0 ****  ****    0 ROOT
