@<TRIPOS>MOLECULE
U1G
   30    31     1     0     0
SMALL
abcg2


@<TRIPOS>ATOM
      1 N1           7.5660    -2.7820    23.8430 n          1 U1G      -0.407800
      2 C4           8.5050    -2.2390    22.8770 c6         1 U1G       0.079500
      3 C5           7.7720    -1.8140    21.6080 c6         1 U1G       0.074500
      4 C6           7.2440    -2.2290    25.0330 c          1 U1G       0.541600
      5 C7           8.2280    -1.3170    25.6540 cc         1 U1G       0.061500
      6 C8           9.5870    -1.2820    25.7160 cd         1 U1G      -0.144000
      7 C10          8.7350     0.2350    27.0880 cc         1 U1G       0.144900
      8 N            6.9760    -2.9000    21.0780 n          1 U1G      -0.419800
      9 C            8.0740    -2.7710    18.8940 c3         1 U1G      -0.177100
     10 O            6.3360    -4.3080    19.4390 o          1 U1G      -0.599100
     11 C1           7.0570    -3.3960    19.8210 c          1 U1G       0.610100
     12 C2           6.0300    -3.4300    22.0400 c6         1 U1G       0.074500
     13 C3           6.7590    -3.8640    23.3010 c6         1 U1G       0.079500
     14 C9           9.9180    -0.2650    26.6540 cd         1 U1G      -0.201000
     15 O1           6.2180    -2.4940    25.6440 o          1 U1G      -0.571100
     16 O2           7.7110    -0.4000    26.5000 os         1 U1G      -0.197000
     17 H7           9.0140    -1.3680    23.2790 h1         1 U1G       0.066200
     18 H8           9.2600    -2.9930    22.6390 h1         1 U1G       0.066200
     19 H9           7.1180    -0.9670    21.8420 h1         1 U1G       0.064200
     20 H10          8.5040    -1.4660    20.8850 h1         1 U1G       0.064200
     21 H11         10.2760    -1.9140    25.1790 ha         1 U1G       0.143000
     22 H13          8.4830     1.0190    27.7840 h4         1 U1G       0.058100
     23 H            8.0280    -3.2730    17.9310 hc         1 U1G       0.060700
     24 H2           7.8760    -1.7100    18.7370 hc         1 U1G       0.060700
     25 H1           9.0900    -2.8620    19.2790 hc         1 U1G       0.060700
     26 H3           5.2880    -2.6620    22.2820 h1         1 U1G       0.064200
     27 H4           5.5060    -4.2790    21.6090 h1         1 U1G       0.064200
     28 H5           6.0450    -4.2040    24.0460 h1         1 U1G       0.066200
     29 H6           7.4250    -4.6990    23.0640 h1         1 U1G       0.066200
     30 H12         10.9020     0.0470    26.9620 ha         1 U1G       0.146000
@<TRIPOS>BOND
     1     1     2 1   
     2     1     4 1   
     3     1    13 1   
     4     2     3 1   
     5     2    17 1   
     6     2    18 1   
     7     3     8 1   
     8     3    19 1   
     9     3    20 1   
    10     4     5 1   
    11     4    15 2   
    12     5     6 2   
    13     5    16 1   
    14     6    14 1   
    15     6    21 1   
    16     7    14 2   
    17     7    16 1   
    18     7    22 1   
    19     8    11 1   
    20     8    12 1   
    21     9    11 1   
    22     9    23 1   
    23     9    24 1   
    24     9    25 1   
    25    10    11 2   
    26    12    13 1   
    27    12    26 1   
    28    12    27 1   
    29    13    28 1   
    30    13    29 1   
    31    14    30 1   
@<TRIPOS>SUBSTRUCTURE
     1 U1G         1 TEMP              0 ****  ****    0 ROOT
