@<TRIPOS>MOLECULE
U1H
   20    20     1     0     0
SMALL
abcg2


@<TRIPOS>ATOM
      1 C02         -0.5420     2.7960    10.5720 c3         1 U1H       0.191100
      2 C03         -1.8960     2.1320    10.5370 ca         1 U1H      -0.056300
      3 C04         -3.0450     2.8490    10.8810 ca         1 U1H      -0.102500
      4 C05         -4.2930     2.2480    10.8550 ca         1 U1H      -0.063000
      5 C06         -4.4070     0.9080    10.4820 ca         1 U1H      -0.190300
      6 C07         -5.7640     0.2780    10.4080 c3         1 U1H       0.343300
      7 C11         -3.2750     0.1820    10.1340 ca         1 U1H      -0.063000
      8 C12         -2.0280     0.7970    10.1630 ca         1 U1H      -0.102500
      9 F08         -6.6010     0.7340    11.3670 f          1 U1H      -0.114667
     10 F09         -5.7250    -1.0660    10.5300 f          1 U1H      -0.114667
     11 F10         -6.3820     0.5320     9.2230 f          1 U1H      -0.114667
     12 N01         -0.4970     3.9520     9.6640 n8         1 U1H      -1.000200
     13 H1           0.2260     2.0440    10.3550 h1         1 U1H       0.039700
     14 H2          -0.3530     3.1660    11.5830 h1         1 U1H       0.039700
     15 H3          -2.9570     3.8880    11.1720 ha         1 U1H       0.125000
     16 H4          -5.1730     2.8130    11.1300 ha         1 U1H       0.130000
     17 H5          -3.3600    -0.8560     9.8410 ha         1 U1H       0.130000
     18 H6          -1.1470     0.2290     9.8910 ha         1 U1H       0.125000
     19 H7           0.3980     4.4200     9.7580 hn         1 U1H       0.399500
     20 H8          -0.5530     3.6300     8.7020 hn         1 U1H       0.399500
@<TRIPOS>BOND
     1     1     2 1   
     2     1    12 1   
     3     1    13 1   
     4     1    14 1   
     5     2     3 ar  
     6     2     8 ar  
     7     3     4 ar  
     8     3    15 1   
     9     4     5 ar  
    10     4    16 1   
    11     5     6 1   
    12     5     7 ar  
    13     6     9 1   
    14     6    10 1   
    15     6    11 1   
    16     7     8 ar  
    17     7    17 1   
    18     8    18 1   
    19    12    19 1   
    20    12    20 1   
@<TRIPOS>SUBSTRUCTURE
     1 U1H         1 TEMP              0 ****  ****    0 ROOT
