@<TRIPOS>MOLECULE
U1H
   20    20     1     0     0
SMALL
No Charge or Current Charge


@<TRIPOS>ATOM
      1 C02         -0.5750     2.9170    10.6500 c3         1 U1H       0.191100
      2 C03         -1.9280     2.2200    10.5810 ca         1 U1H      -0.056300
      3 C04         -3.0900     2.8730    11.0330 ca         1 U1H      -0.102500
      4 C05         -4.3390     2.2300    10.9770 ca         1 U1H      -0.063000
      5 C06         -4.4460     0.9170    10.4700 ca         1 U1H      -0.190300
      6 C07         -5.8090     0.2180    10.3970 c3         1 U1H       0.343300
      7 C11         -3.2800     0.2680    10.0070 ca         1 U1H      -0.063000
      8 C12         -2.0330     0.9140    10.0650 ca         1 U1H      -0.102500
      9 F08         -6.6490     0.6250    11.3760 f          1 U1H      -0.114667
     10 F09         -5.7050    -1.1260    10.5140 f          1 U1H      -0.114667
     11 F10         -6.4250     0.4640     9.2190 f          1 U1H      -0.114667
     12 N01         -0.3460     3.7890     9.4800 n8         1 U1H      -1.000200
     13 H1           0.2270     2.1670    10.6960 h1         1 U1H       0.039700
     14 H2          -0.5200     3.5270    11.5630 h1         1 U1H       0.039700
     15 H3          -3.0240     3.8850    11.4280 ha         1 U1H       0.125000
     16 H4          -5.2220     2.7610    11.3260 ha         1 U1H       0.130000
     17 H5          -3.3350    -0.7390     9.5980 ha         1 U1H       0.130000
     18 H6          -1.1450     0.3970     9.7070 ha         1 U1H       0.125000
     19 H7           0.6090     4.1640     9.5260 hn         1 U1H       0.399500
     20 H8          -0.3390     3.2060     8.6340 hn         1 U1H       0.399500
@<TRIPOS>BOND
     1     1     2 1   
     2     1    12 1   
     3     1    13 1   
     4     1    14 1   
     5     2     3 ar  
     6     2     8 ar  
     7     3     4 ar  
     8     3    15 1   
     9     4     5 ar  
    10     4    16 1   
    11     5     6 1   
    12     5     7 ar  
    13     6     9 1   
    14     6    10 1   
    15     6    11 1   
    16     7     8 ar  
    17     7    17 1   
    18     8    18 1   
    19    12    19 1   
    20    12    20 1   
@<TRIPOS>SUBSTRUCTURE
     1 U1H         1 TEMP              0 ****  ****    0 ROOT
