@<TRIPOS>MOLECULE
U1I
   33    34     1     0     0
SMALL
No Charge or Current Charge


@<TRIPOS>ATOM
      1 C4          13.3180    -4.4350   -25.6360 ca         1 U1I      -0.108000
      2 C5          13.1110    -5.8000   -25.9000 ca         1 U1I      -0.100000
      3 C6          12.2990    -6.2210   -26.9780 ca         1 U1I      -0.067300
      4 C7          12.0980    -7.7310   -27.2660 c5         1 U1I      -0.094700
      5 C8          12.3350    -8.6660   -26.0400 c          1 U1I       0.598100
      6 C10         10.6510    -8.0170   -27.8140 c5         1 U1I       0.149800
      7 N           10.8330    -8.3390   -29.2540 n7         1 U1I      -0.826400
      8 O           11.4110    -8.4030   -25.0570 os         1 U1I      -0.442100
      9 C1          12.7290    -3.4550   -26.4510 ca         1 U1I      -0.073300
     10 C11         12.1290    -9.0490   -29.2870 c5         1 U1I       0.131800
     11 C12         13.0280    -8.0870   -28.4830 c5         1 U1I      -0.103400
     12 C2          11.9350    -3.8570   -27.5370 ca         1 U1I      -0.108000
     13 C3          11.7280    -5.2210   -27.8020 ca         1 U1I      -0.100000
     14 C9          11.4790    -9.1640   -23.8370 c3         1 U1I       0.150900
     15 O1          13.2120    -9.5140   -25.9290 o          1 U1I      -0.485000
     16 H1          13.9420    -4.1420   -24.7950 ha         1 U1I       0.112500
     17 H2          13.5960    -6.5280   -25.2550 ha         1 U1I       0.112000
     18 H3           9.9500    -7.1850   -27.6570 h1         1 U1I       0.067200
     19 H4          10.2110    -8.8880   -27.3060 h1         1 U1I       0.067200
     20 H5          10.9450    -7.4590   -29.7710 hn         1 U1I       0.398000
     21 H7          12.1810    -1.5920   -25.4870 hc         1 U1I       0.043700
     22 H8          13.9280    -1.8040   -25.6930 hc         1 U1I       0.043700
     23 H9          12.9200    -1.3820   -27.0830 hc         1 U1I       0.043700
     24 H10         12.0570   -10.0350   -28.8040 h1         1 U1I       0.062700
     25 H11         12.4930    -9.1990   -30.3140 h1         1 U1I       0.062700
     26 H12         13.9830    -8.5410   -28.1940 hc         1 U1I       0.068200
     27 H13         13.2750    -7.2070   -29.0890 hc         1 U1I       0.068200
     28 H14         11.4790    -3.1100   -28.1840 ha         1 U1I       0.112500
     29 H15         11.1230    -5.4910   -28.6630 ha         1 U1I       0.112000
     30 H16         10.6860    -8.8510   -23.1470 h1         1 U1I       0.049700
     31 H17         11.3530   -10.2360   -24.0370 h1         1 U1I       0.049700
     32 H18         12.4450    -9.0140   -23.3360 h1         1 U1I       0.049700
     33 C           12.9520    -1.9780   -26.1630 c3         1 U1I      -0.046800
@<TRIPOS>BOND
     1     1     2 ar  
     2     1     9 ar  
     3     1    16 1   
     4     2     3 ar  
     5     2    17 1   
     6     3     4 1   
     7     3    13 ar  
     8     4     5 1   
     9     4     6 1   
    10     4    11 1   
    11     5     8 1   
    12     5    15 2   
    13     6     7 1   
    14     6    18 1   
    15     6    19 1   
    16     7    10 1   
    17     7    20 1   
    18     8    14 1   
    19     9    12 ar  
    20     9    33 1   
    21    10    11 1   
    22    10    24 1   
    23    10    25 1   
    24    11    26 1   
    25    11    27 1   
    26    12    13 ar  
    27    12    28 1   
    28    13    29 1   
    29    14    30 1   
    30    14    31 1   
    31    14    32 1   
    32    21    33 1   
    33    22    33 1   
    34    23    33 1   
@<TRIPOS>SUBSTRUCTURE
     1 U1I         1 TEMP              0 ****  ****    0 ROOT
