@<TRIPOS>MOLECULE
U1I
   33    34     1     0     0
SMALL
abcg2


@<TRIPOS>ATOM
      1 C4          13.4330    -4.4880   -25.7400 ca         1 U1I      -0.108000
      2 C5          13.2060    -5.8350   -25.9960 ca         1 U1I      -0.100000
      3 C6          12.2720    -6.2440   -26.9490 ca         1 U1I      -0.067300
      4 C7          12.0990    -7.7210   -27.2790 c5         1 U1I      -0.094700
      5 C8          12.2880    -8.5660   -26.0260 c          1 U1I       0.598100
      6 C10         10.6860    -8.1020   -27.8800 c5         1 U1I       0.149800
      7 N           10.8720    -8.4060   -29.2970 n7         1 U1I      -0.826400
      8 O           11.3910    -8.2370   -25.0880 os         1 U1I      -0.442100
      9 C1          12.7380    -3.4950   -26.4300 ca         1 U1I      -0.073300
     10 C11         12.2190    -8.9930   -29.3620 c5         1 U1I       0.131800
     11 C12         13.0770    -8.1520   -28.4080 c5         1 U1I      -0.103400
     12 C2          11.8150    -3.9040   -27.3930 ca         1 U1I      -0.108000
     13 C3          11.5860    -5.2510   -27.6480 ca         1 U1I      -0.100000
     14 C9          11.4290    -8.9880   -23.8580 c3         1 U1I       0.150900
     15 O1          13.0970    -9.4560   -25.8800 o          1 U1I      -0.485000
     16 H1          14.1650    -4.2060   -24.9910 ha         1 U1I       0.112500
     17 H2          13.7750    -6.5730   -25.4430 ha         1 U1I       0.112000
     18 H3           9.9450    -7.3210   -27.7320 h1         1 U1I       0.067200
     19 H4          10.3200    -9.0000   -27.3780 h1         1 U1I       0.067200
     20 H5          10.8800    -7.5370   -29.8220 hn         1 U1I       0.398000
     21 H7          12.2490    -1.6840   -25.3750 hc         1 U1I       0.043700
     22 H8          13.9620    -1.8590   -25.7460 hc         1 U1I       0.043700
     23 H9          12.8120    -1.4240   -27.0220 hc         1 U1I       0.043700
     24 H10         12.1650   -10.0290   -29.0150 h1         1 U1I       0.062700
     25 H11         12.5920    -8.9950   -30.3860 h1         1 U1I       0.062700
     26 H12         13.9380    -8.6840   -28.0100 hc         1 U1I       0.068200
     27 H13         13.4310    -7.2610   -28.9270 hc         1 U1I       0.068200
     28 H14         11.2660    -3.1580   -27.9560 ha         1 U1I       0.112500
     29 H15         10.8680    -5.5160   -28.4130 ha         1 U1I       0.112000
     30 H16         10.6380    -8.5730   -23.2410 h1         1 U1I       0.049700
     31 H17         11.2480   -10.0430   -24.0550 h1         1 U1I       0.049700
     32 H18         12.3960    -8.8650   -23.3730 h1         1 U1I       0.049700
     33 C           12.9570    -2.0360   -26.1310 c3         1 U1I      -0.046800
@<TRIPOS>BOND
     1     1     2 ar  
     2     1     9 ar  
     3     1    16 1   
     4     2     3 ar  
     5     2    17 1   
     6     3     4 1   
     7     3    13 ar  
     8     4     5 1   
     9     4     6 1   
    10     4    11 1   
    11     5     8 1   
    12     5    15 2   
    13     6     7 1   
    14     6    18 1   
    15     6    19 1   
    16     7    10 1   
    17     7    20 1   
    18     8    14 1   
    19     9    12 ar  
    20     9    33 1   
    21    10    11 1   
    22    10    24 1   
    23    10    25 1   
    24    11    26 1   
    25    11    27 1   
    26    12    13 ar  
    27    12    28 1   
    28    13    29 1   
    29    14    30 1   
    30    14    31 1   
    31    14    32 1   
    32    21    33 1   
    33    22    33 1   
    34    23    33 1   
@<TRIPOS>SUBSTRUCTURE
     1 U1I         1 TEMP              0 ****  ****    0 ROOT
