@<TRIPOS>MOLECULE
U1J
   32    33     1     0     0
SMALL
No Charge or Current Charge


@<TRIPOS>ATOM
      1 C10         26.3620    -4.9430    17.0220 ca         1 U1J      -0.014900
      2 C15         22.9930    -2.3800    16.3360 c          1 U1J       0.479400
      3 C17         25.5160    -0.8470    11.9830 ca         1 U1J      -0.023000
      4 C02         25.6780     1.5360    11.4400 ca         1 U1J       0.011700
      5 C03         26.4350     1.7240    12.6130 ca         1 U1J      -0.129000
      6 C04         26.7330     0.6460    13.4610 ca         1 U1J      -0.042000
      7 C05         26.2740    -0.6450    13.1510 ca         1 U1J      -0.115300
      8 C06         26.5860    -1.8160    14.0710 c3         1 U1J       0.215900
      9 C08         25.3770    -3.0880    15.8160 ca         1 U1J       0.134100
     10 C09         26.4830    -3.9380    16.0490 ca         1 U1J      -0.156000
     11 C12         25.1550    -5.0770    17.7320 ca         1 U1J       0.323900
     12 C14         24.1900    -3.2860    16.5750 ca         1 U1J       0.227500
     13 C18         25.2190     0.2310    11.1170 ca         1 U1J      -0.167200
     14 N13         24.0870    -4.2710    17.5210 nb         1 U1J      -0.586000
     15 N19         24.4190    -0.0470     9.8870 no         1 U1J       0.670200
     16 O07         25.4220    -2.0750    14.8740 os         1 U1J      -0.346100
     17 O16         21.9240    -2.4680    16.9390 o          1 U1J      -0.481100
     18 O20         23.5130    -0.8860     9.9690 o          1 U1J      -0.390000
     19 O21         24.8030     0.4430     8.8170 o          1 U1J      -0.390000
     20 Br11        27.8300    -6.1200    17.3750 br         1 U1J      -0.076100
     21 H1          23.1220    -1.5950    15.5590 h4         1 U1J       0.015200
     22 H2          25.1630    -1.8500    11.7470 ha         1 U1J       0.152000
     23 H3          24.3000     2.7740    10.2860 hc         1 U1J       0.064367
     24 H4          25.5560     3.6930    11.1120 hc         1 U1J       0.064367
     25 H5          25.9640     2.7650     9.6660 hc         1 U1J       0.064367
     26 H6          26.7940     2.7170    12.8760 ha         1 U1J       0.130000
     27 H7          27.3160     0.8190    14.3640 ha         1 U1J       0.127000
     28 H8          26.8450    -2.6950    13.4660 h1         1 U1J       0.054700
     29 H9          27.4480    -1.5700    14.7050 h1         1 U1J       0.054700
     30 H10         27.4150    -3.8360    15.5010 ha         1 U1J       0.138000
     31 H11         25.0390    -5.8490    18.4910 h4         1 U1J       0.046100
     32 C01         25.3560     2.7560    10.5790 c3         1 U1J      -0.057800
@<TRIPOS>BOND
     1     1    10 ar  
     2     1    11 ar  
     3     1    20 1   
     4     2    12 1   
     5     2    17 2   
     6     2    21 1   
     7     3     7 ar  
     8     3    13 ar  
     9     3    22 1   
    10     4     5 ar  
    11     4    13 ar  
    12     4    32 1   
    13     5     6 ar  
    14     5    26 1   
    15     6     7 ar  
    16     6    27 1   
    17     7     8 1   
    18     8    16 1   
    19     8    28 1   
    20     8    29 1   
    21     9    10 ar  
    22     9    12 ar  
    23     9    16 1   
    24    10    30 1   
    25    11    14 ar  
    26    11    31 1   
    27    12    14 ar  
    28    13    15 1   
    29    15    18 1   
    30    15    19 1   
    31    23    32 1   
    32    24    32 1   
    33    25    32 1   
@<TRIPOS>SUBSTRUCTURE
     1 U1J         1 TEMP              0 ****  ****    0 ROOT
