@<TRIPOS>MOLECULE
U1J
   32    33     1     0     0
SMALL
abcg2


@<TRIPOS>ATOM
      1 C10         26.3480    -4.8460    16.9930 ca         1 U1J      -0.014900
      2 C15         23.0270    -2.3890    16.2820 c          1 U1J       0.479400
      3 C17         25.5240    -0.8730    11.9880 ca         1 U1J      -0.023000
      4 C02         25.6740     1.5180    11.4560 ca         1 U1J       0.011700
      5 C03         26.4120     1.6670    12.6320 ca         1 U1J      -0.129000
      6 C04         26.7170     0.5910    13.4540 ca         1 U1J      -0.042000
      7 C05         26.2780    -0.6930    13.1390 ca         1 U1J      -0.115300
      8 C06         26.5710    -1.8530    14.0380 c3         1 U1J       0.215900
      9 C08         25.3910    -3.0530    15.7610 ca         1 U1J       0.134100
     10 C09         26.4870    -3.8850    16.0130 ca         1 U1J      -0.156000
     11 C12         25.1520    -4.9770    17.7050 ca         1 U1J       0.323900
     12 C14         24.2130    -3.2430    16.5150 ca         1 U1J       0.227500
     13 C18         25.2450     0.2140    11.1700 ca         1 U1J      -0.167200
     14 N13         24.1220    -4.1890    17.4580 nb         1 U1J      -0.586000
     15 N19         24.4570    -0.0710     9.9670 no         1 U1J       0.670200
     16 O07         25.3870    -2.0750    14.8420 os         1 U1J      -0.346100
     17 O16         21.9870    -2.4870    16.9020 o          1 U1J      -0.481100
     18 O20         23.6240    -0.9680    10.0260 o          1 U1J      -0.390000
     19 O21         24.6740     0.5870     8.9580 o          1 U1J      -0.390000
     20 BR11        27.7940    -6.0160    17.3890 br         1 U1J      -0.076100
     21 H1          23.1380    -1.6330    15.4900 h4         1 U1J       0.015200
     22 H2          25.1620    -1.8530    11.7130 ha         1 U1J       0.152000
     23 H3          24.3220     2.7470    10.3060 hc         1 U1J       0.064367
     24 H4          25.5730     3.6280    11.2010 hc         1 U1J       0.064367
     25 H5          25.9740     2.7470     9.7190 hc         1 U1J       0.064367
     26 H6          26.7480     2.6580    12.9070 ha         1 U1J       0.130000
     27 H7          27.3000     0.7510    14.3520 ha         1 U1J       0.127000
     28 H8          26.7810    -2.7590    13.4650 h1         1 U1J       0.054700
     29 H9          27.4140    -1.6340    14.6950 h1         1 U1J       0.054700
     30 H10         27.4110    -3.7850    15.4660 ha         1 U1J       0.138000
     31 H11         25.0440    -5.7320    18.4740 h4         1 U1J       0.046100
     32 C01         25.3650     2.7280    10.6240 c3         1 U1J      -0.057800
@<TRIPOS>BOND
     1     1    10 ar  
     2     1    11 ar  
     3     1    20 1   
     4     2    12 1   
     5     2    17 2   
     6     2    21 1   
     7     3     7 ar  
     8     3    13 ar  
     9     3    22 1   
    10     4     5 ar  
    11     4    13 ar  
    12     4    32 1   
    13     5     6 ar  
    14     5    26 1   
    15     6     7 ar  
    16     6    27 1   
    17     7     8 1   
    18     8    16 1   
    19     8    28 1   
    20     8    29 1   
    21     9    10 ar  
    22     9    12 ar  
    23     9    16 1   
    24    10    30 1   
    25    11    14 ar  
    26    11    31 1   
    27    12    14 ar  
    28    13    15 1   
    29    15    18 1   
    30    15    19 1   
    31    23    32 1   
    32    24    32 1   
    33    25    32 1   
@<TRIPOS>SUBSTRUCTURE
     1 U1J         1 TEMP              0 ****  ****    0 ROOT
