@<TRIPOS>MOLECULE
U1K
   31    31     1     0     0
SMALL
No Charge or Current Charge


@<TRIPOS>ATOM
      1 O1           3.5740     1.5150    -0.5530 o          1 U1K      -0.701000
      2 C2           3.3750     0.4010    -0.0930 c          1 U1K       0.711000
      3 O3           4.2300    -0.2580     0.4840 o          1 U1K      -0.701000
      4 C4           2.0200    -0.3140    -0.4470 c3         1 U1K      -0.044700
      5 C5           1.0160    -0.2100     0.7230 c3         1 U1K       0.004900
      6 C6          -0.4160    -0.5280     0.3130 cc         1 U1K      -0.248300
      7 C7          -1.4520     0.3530     0.0650 cd         1 U1K      -0.159300
      8 S8          -2.8920    -0.6090    -0.3290 ss         1 U1K       0.109100
      9 N9          -2.1280    -2.0930    -0.2000 nd         1 U1K      -0.650100
     10 C10         -0.8800    -1.8740     0.1350 cc         1 U1K       0.810000
     11 O11         -0.0760    -2.7910     0.2700 o          1 U1K      -0.866000
     12 C12         -1.5010     1.8890     0.0780 c3         1 U1K       0.030300
     13 C13         -0.3600     2.4870    -0.7900 c3         1 U1K      -0.083100
     14 C14         -1.3990     2.4060     1.5370 c3         1 U1K      -0.083100
     15 C15         -2.8420     2.4130    -0.5140 c3         1 U1K      -0.083100
     16 N16          2.1920    -1.7800    -0.8480 nz         1 U1K      -1.043000
     17 H4           1.6010     0.2280    -1.2990 hx         1 U1K       0.069700
     18 H51          1.0810     0.7900     1.1590 hc         1 U1K       0.064200
     19 H52          1.3360    -0.8820     1.5290 hc         1 U1K       0.064200
     20 H131         0.6280     2.3170    -0.3550 hc         1 U1K       0.033478
     21 H132        -0.3690     2.0490    -1.7960 hc         1 U1K       0.033478
     22 H133        -0.4770     3.5730    -0.8950 hc         1 U1K       0.033478
     23 H141        -1.4680     3.5000     1.5700 hc         1 U1K       0.033478
     24 H142        -2.2120     1.9970     2.1490 hc         1 U1K       0.033478
     25 H143        -0.4530     2.1200     2.0080 hc         1 U1K       0.033478
     26 H151        -2.9820     2.0670    -1.5450 hc         1 U1K       0.033478
     27 H152        -3.7010     2.0830     0.0840 hc         1 U1K       0.033478
     28 H153        -2.8620     3.5100    -0.5280 hc         1 U1K       0.033478
     29 H161         1.3570    -2.3430    -0.5690 hn         1 U1K       0.499667
     30 H162         2.3510    -1.9340    -1.8540 hn         1 U1K       0.499667
     31 H163         2.9880    -2.2170    -0.3580 hn         1 U1K       0.499667
@<TRIPOS>BOND
     1     1     2 1   
     2     2     3 1   
     3     2     4 1   
     4     4     5 1   
     5     4    16 1   
     6     4    17 1   
     7     5     6 1   
     8     5    18 1   
     9     5    19 1   
    10     6     7 2   
    11     6    10 1   
    12     7     8 1   
    13     7    12 1   
    14     8     9 1   
    15     9    10 2   
    16    10    11 1   
    17    12    13 1   
    18    12    14 1   
    19    12    15 1   
    20    13    20 1   
    21    13    21 1   
    22    13    22 1   
    23    14    23 1   
    24    14    24 1   
    25    14    25 1   
    26    15    26 1   
    27    15    27 1   
    28    15    28 1   
    29    16    29 1   
    30    16    30 1   
    31    16    31 1   
@<TRIPOS>SUBSTRUCTURE
     1 U1K         1 TEMP              0 ****  ****    0 ROOT
