@<TRIPOS>MOLECULE
U1K
   31    31     1     0     0
SMALL
bcc


@<TRIPOS>ATOM
      1 O1           3.4050     1.5200    -0.0500 o          1 U1K      -0.806300
      2 C2           3.3920     0.2800    -0.0570 c          1 U1K       0.921600
      3 O3           4.3110    -0.5040     0.2480 o          1 U1K      -0.806300
      4 C4           2.0430    -0.3630    -0.4600 c3         1 U1K      -0.016500
      5 C5           0.9880    -0.1280     0.6260 c3         1 U1K       0.004900
      6 C6          -0.4130    -0.4650     0.2090 cc         1 U1K      -0.313600
      7 C7          -1.4450     0.3930    -0.0150 cd         1 U1K      -0.014400
      8 S8          -2.8500    -0.5430    -0.3920 ss         1 U1K      -0.035800
      9 N9          -2.0990    -2.0210    -0.2840 nd         1 U1K      -0.650100
     10 C10         -0.8220    -1.8580     0.0260 cc         1 U1K       0.875300
     11 O11         -0.0060    -2.8370     0.1390 o          1 U1K      -0.866000
     12 C12         -1.5180     1.9060     0.0480 c3         1 U1K       0.030300
     13 C13         -0.4570     2.5320    -0.8670 c3         1 U1K      -0.083100
     14 C14         -1.3140     2.3700     1.4960 c3         1 U1K      -0.083100
     15 C15         -2.8900     2.4040    -0.4210 c3         1 U1K      -0.083100
     16 N16          2.2220    -1.8200    -0.6790 nz         1 U1K      -0.905600
     17 H4           1.6990     0.0750    -1.3980 hx         1 U1K       0.069700
     18 H51          1.0650     0.9120     0.9280 hc         1 U1K       0.064200
     19 H52          1.2630    -0.7140     1.5100 hc         1 U1K       0.064200
     20 H131         0.5610     2.2740    -0.5770 hc         1 U1K       0.033478
     21 H132        -0.6000     2.2190    -1.9020 hc         1 U1K       0.033478
     22 H133        -0.5390     3.6210    -0.8330 hc         1 U1K       0.033478
     23 H141        -1.4110     3.4560     1.5600 hc         1 U1K       0.033478
     24 H142        -2.0620     1.9280     2.1560 hc         1 U1K       0.033478
     25 H143        -0.3300     2.1060     1.8830 hc         1 U1K       0.033478
     26 H151        -3.0940     2.1160    -1.4540 hc         1 U1K       0.033478
     27 H152        -3.7000     2.0260     0.2080 hc         1 U1K       0.033478
     28 H153        -2.9240     3.4930    -0.3700 hc         1 U1K       0.033478
     29 H161         1.3410    -2.3690    -0.3490 hn         1 U1K       0.444467
     30 H162         2.4140    -2.0350    -1.6530 hn         1 U1K       0.444467
     31 H163         3.0480    -2.1060    -0.1460 hn         1 U1K       0.444467
@<TRIPOS>BOND
     1     1     2 1   
     2     2     3 1   
     3     2     4 1   
     4     4     5 1   
     5     4    16 1   
     6     4    17 1   
     7     5     6 1   
     8     5    18 1   
     9     5    19 1   
    10     6     7 2   
    11     6    10 1   
    12     7     8 1   
    13     7    12 1   
    14     8     9 1   
    15     9    10 2   
    16    10    11 1   
    17    12    13 1   
    18    12    14 1   
    19    12    15 1   
    20    13    20 1   
    21    13    21 1   
    22    13    22 1   
    23    14    23 1   
    24    14    24 1   
    25    14    25 1   
    26    15    26 1   
    27    15    27 1   
    28    15    28 1   
    29    16    29 1   
    30    16    30 1   
    31    16    31 1   
@<TRIPOS>SUBSTRUCTURE
     1 U1K         1 TEMP              0 ****  ****    0 ROOT
