@<TRIPOS>MOLECULE
U1L
   40    41     1     0     0
SMALL
No Charge or Current Charge


@<TRIPOS>ATOM
      1 C1         -11.1160    15.6530   -27.9430 c3         1 U1L      -0.108100
      2 C10         -9.4770    21.5840   -28.0780 ca         1 U1L       0.046000
      3 C11         -7.8840    20.2730   -27.0170 ca         1 U1L       0.128500
      4 C12         -6.5740    20.2050   -26.2400 c          1 U1L       0.515600
      5 C13         -4.9140    18.6400   -25.1800 c3         1 U1L       0.141200
      6 C14         -4.8240    17.1490   -24.9440 c2         1 U1L      -0.249200
      7 C15         -4.8360    16.2050   -25.9000 c2         1 U1L      -0.294000
      8 C2          -9.9290    16.6100   -27.7110 c3         1 U1L       0.160500
      9 C3          -8.5910    16.0000   -28.2670 c          1 U1L       0.607100
     10 C4          -9.6660    19.1780   -27.9930 ca         1 U1L       0.395900
     11 C5         -10.2010    20.4140   -28.4180 ca         1 U1L      -0.166000
     12 C6         -11.4050    20.5190   -29.1530 ca         1 U1L      -0.082000
     13 C7         -11.8840    21.7800   -29.5440 ca         1 U1L      -0.114000
     14 C8         -11.1700    22.9400   -29.2070 ca         1 U1L      -0.085000
     15 C9          -9.9730    22.8390   -28.4780 ca         1 U1L      -0.084000
     16 N1          -8.0970    16.6170   -29.4120 ns         1 U1L      -0.378400
     17 N2         -10.2850    17.9580   -28.2710 nu         1 U1L      -0.945100
     18 N3          -8.3250    21.5000   -27.3810 nb         1 U1L      -0.140000
     19 N4          -6.1460    18.9390   -25.8940 ns         1 U1L      -0.487900
     20 N5          -8.5190    19.1090   -27.2990 nb         1 U1L      -0.297000
     21 O1          -6.7310    16.4090   -29.8500 oh         1 U1L      -0.419100
     22 O2          -8.0130    15.0580   -27.7310 o          1 U1L      -0.574100
     23 O3          -5.9220    21.1980   -25.9340 o          1 U1L      -0.566100
     24 H1         -12.0310    16.0510   -27.4890 hc         1 U1L       0.053700
     25 H2         -11.2940    15.5040   -29.0150 hc         1 U1L       0.053700
     26 H3         -10.9130    14.6750   -27.4920 hc         1 U1L       0.053700
     27 H4          -4.0580    18.9830   -25.7770 h1         1 U1L       0.056700
     28 H5          -4.9100    19.1800   -24.2230 h1         1 U1L       0.056700
     29 H6          -4.7440    16.8700   -23.8910 ha         1 U1L       0.177000
     30 H7          -4.7680    15.1430   -25.6560 ha         1 U1L       0.162500
     31 H8          -4.9130    16.4560   -26.9600 ha         1 U1L       0.162500
     32 H9          -9.7870    16.6970   -26.6240 h1         1 U1L       0.095700
     33 H10        -11.9790    19.6380   -29.4280 ha         1 U1L       0.103000
     34 H11        -12.8110    21.8580   -30.1090 ha         1 U1L       0.118000
     35 H12        -11.5420    23.9160   -29.5100 ha         1 U1L       0.121000
     36 H13         -9.4250    23.7440   -28.2220 ha         1 U1L       0.143000
     37 H14         -8.5340    17.4980   -29.6790 hn         1 U1L       0.341500
     38 H15        -11.1850    18.0360   -28.7460 hn         1 U1L       0.504000
     39 H16         -6.7340    18.1660   -26.1830 hn         1 U1L       0.344500
     40 H17         -6.8210    16.2490   -30.8190 ho         1 U1L       0.443000
@<TRIPOS>BOND
     1     1     8 1   
     2     1    24 1   
     3     1    25 1   
     4     1    26 1   
     5     2    11 ar  
     6     2    15 ar  
     7     2    18 ar  
     8     3     4 1   
     9     3    18 ar  
    10     3    20 ar  
    11     4    19 1   
    12     4    23 2   
    13     5     6 1   
    14     5    19 1   
    15     5    27 1   
    16     5    28 1   
    17     6     7 2   
    18     6    29 1   
    19     7    30 1   
    20     7    31 1   
    21     8     9 1   
    22     8    17 1   
    23     8    32 1   
    24     9    16 1   
    25     9    22 2   
    26    10    11 ar  
    27    10    17 1   
    28    10    20 ar  
    29    11    12 ar  
    30    12    13 ar  
    31    12    33 1   
    32    13    14 ar  
    33    13    34 1   
    34    14    15 ar  
    35    14    35 1   
    36    15    36 1   
    37    16    21 1   
    38    16    37 1   
    39    17    38 1   
    40    19    39 1   
    41    21    40 1   
@<TRIPOS>SUBSTRUCTURE
     1 U1L         1 TEMP              0 ****  ****    0 ROOT
