@<TRIPOS>MOLECULE
U1L
   40    41     1     0     0
SMALL
abcg2


@<TRIPOS>ATOM
      1 C1         -11.4110    15.7310   -27.6780 c3         1 U1L      -0.108100
      2 C10         -9.2680    21.3870   -28.2680 ca         1 U1L       0.046000
      3 C11         -7.9380    19.9940   -27.0940 ca         1 U1L       0.128500
      4 C12         -6.6700    19.7560   -26.2970 c          1 U1L       0.515600
      5 C13         -5.4500    18.0790   -24.9960 c3         1 U1L       0.141200
      6 C14         -4.3860    17.5360   -25.9040 c2         1 U1L      -0.249200
      7 C15         -3.1380    17.9840   -25.9410 c2         1 U1L      -0.294000
      8 C2         -10.2830    16.7310   -27.4570 c3         1 U1L       0.160500
      9 C3          -8.9520    16.1300   -27.9140 c          1 U1L       0.607100
     10 C4          -9.8410    19.0700   -27.9520 ca         1 U1L       0.395900
     11 C5         -10.1920    20.3480   -28.5090 ca         1 U1L      -0.166000
     12 C6         -11.3550    20.6090   -29.2530 ca         1 U1L      -0.082000
     13 C7         -11.5930    21.8680   -29.7430 ca         1 U1L      -0.114000
     14 C8         -10.6740    22.9040   -29.5060 ca         1 U1L      -0.085000
     15 C9          -9.5340    22.6720   -28.7820 ca         1 U1L      -0.084000
     16 N1          -8.6920    16.2870   -29.2230 ns         1 U1L      -0.378400
     17 N2         -10.5960    17.9760   -28.1250 nu         1 U1L      -0.945100
     18 N3          -8.1260    21.1920   -27.5540 nb         1 U1L      -0.140000
     19 N4          -6.6060    18.5460   -25.7290 ns         1 U1L      -0.487900
     20 N5          -8.7360    18.9290   -27.2510 nb         1 U1L      -0.297000
     21 O1          -7.4900    15.8910   -29.7270 oh         1 U1L      -0.419100
     22 O2          -8.2530    15.4870   -27.1530 o          1 U1L      -0.574100
     23 O3          -5.8140    20.6180   -26.1960 o          1 U1L      -0.566100
     24 H1         -12.3410    16.1130   -27.2580 hc         1 U1L       0.053700
     25 H2         -11.5640    15.5300   -28.7380 hc         1 U1L       0.053700
     26 H3         -11.1810    14.7910   -27.1800 hc         1 U1L       0.053700
     27 H4          -5.0540    18.8890   -24.3830 h1         1 U1L       0.056700
     28 H5          -5.7940    17.2970   -24.3170 h1         1 U1L       0.056700
     29 H6          -4.6910    16.7230   -26.5570 ha         1 U1L       0.177000
     30 H7          -2.4000    17.5530   -26.6050 ha         1 U1L       0.162500
     31 H8          -2.8050    18.7960   -25.3050 ha         1 U1L       0.162500
     32 H9         -10.1680    16.9080   -26.3850 h1         1 U1L       0.095700
     33 H10        -12.0820    19.8310   -29.4480 ha         1 U1L       0.103000
     34 H11        -12.4900    22.0640   -30.3140 ha         1 U1L       0.118000
     35 H12        -10.8720    23.8930   -29.8980 ha         1 U1L       0.121000
     36 H13         -8.8180    23.4610   -28.5920 ha         1 U1L       0.143000
     37 H14         -9.2120    16.9210   -29.8120 hn         1 U1L       0.341500
     38 H15        -11.4820    18.0430   -28.5990 hn         1 U1L       0.504000
     39 H16         -7.3510    17.8960   -25.9330 hn         1 U1L       0.344500
     40 H17         -7.6290    15.0070   -30.0910 ho         1 U1L       0.443000
@<TRIPOS>BOND
     1     1     8 1   
     2     1    24 1   
     3     1    25 1   
     4     1    26 1   
     5     2    11 ar  
     6     2    15 ar  
     7     2    18 ar  
     8     3     4 1   
     9     3    18 ar  
    10     3    20 ar  
    11     4    19 1   
    12     4    23 2   
    13     5     6 1   
    14     5    19 1   
    15     5    27 1   
    16     5    28 1   
    17     6     7 2   
    18     6    29 1   
    19     7    30 1   
    20     7    31 1   
    21     8     9 1   
    22     8    17 1   
    23     8    32 1   
    24     9    16 1   
    25     9    22 2   
    26    10    11 ar  
    27    10    17 1   
    28    10    20 ar  
    29    11    12 ar  
    30    12    13 ar  
    31    12    33 1   
    32    13    14 ar  
    33    13    34 1   
    34    14    15 ar  
    35    14    35 1   
    36    15    36 1   
    37    16    21 1   
    38    16    37 1   
    39    17    38 1   
    40    19    39 1   
    41    21    40 1   
@<TRIPOS>SUBSTRUCTURE
     1 U1L         1 TEMP              0 ****  ****    0 ROOT
