@<TRIPOS>MOLECULE
U1M
   40    41     1     0     0
SMALL
No Charge or Current Charge


@<TRIPOS>ATOM
      1 N1           6.6530    -4.6770    21.5630 n          1 U1M      -0.419800
      2 C4           3.8140    -4.5340    25.8580 ca         1 U1M      -0.303500
      3 C5           2.4530    -4.7820    25.5150 ca         1 U1M       0.035700
      4 C6           1.9160    -6.1500    25.0970 c3         1 U1M      -0.066800
      5 C7           1.5260    -3.7200    25.5770 ca         1 U1M      -0.140000
      6 C8           6.5040    -4.2410    24.0910 c6         1 U1M       0.171300
      7 C10          5.7610    -5.8560    21.7870 c6         1 U1M       0.099500
      8 C13          8.1380    -3.2710    20.0640 c3         1 U1M      -0.177100
      9 N            5.8560    -5.5610    24.2880 n3         1 U1M      -0.710500
     10 C1           1.9130    -2.4310    25.9750 ca         1 U1M      -0.014300
     11 C11          4.9810    -5.8510    23.1280 c6         1 U1M       0.171300
     12 C12          7.1980    -4.4600    20.2770 c          1 U1M       0.610100
     13 C2           3.2500    -2.1940    26.3230 ca         1 U1M      -0.137000
     14 C3           4.1880    -3.2340    26.2700 ca         1 U1M      -0.025000
     15 C9           7.3510    -4.1860    22.7930 c6         1 U1M       0.099500
     16 O2           6.8810    -5.1690    19.3310 o          1 U1M      -0.601100
     17 S            5.1310    -5.7930    25.8190 sy         1 U1M       1.144600
     18 H6           1.9740    -6.8670    25.9240 hc         1 U1M       0.059033
     19 H5           0.8620    -6.0990    24.7990 hc         1 U1M       0.059033
     20 H7           2.4600    -6.5610    24.2420 hc         1 U1M       0.059033
     21 H8           0.4860    -3.8970    25.3160 ha         1 U1M       0.114000
     22 H10          5.7450    -3.4470    24.0380 h1         1 U1M       0.062200
     23 H9           7.1660    -3.9960    24.9340 h1         1 U1M       0.062200
     24 H14          5.0330    -5.9300    20.9660 h1         1 U1M       0.065200
     25 H13          6.3790    -6.7640    21.7520 h1         1 U1M       0.065200
     26 H19          8.4120    -3.1380    19.0110 hc         1 U1M       0.061367
     27 H18          7.6770    -2.3670    20.4780 hc         1 U1M       0.061367
     28 H17          9.0280    -3.4000    20.6890 hc         1 U1M       0.061367
     29 H1           0.7910    -0.8240    25.0490 hc         1 U1M       0.050033
     30 H2          -0.0960    -1.6760    26.3240 hc         1 U1M       0.050033
     31 H            1.1820    -0.5330    26.7520 hc         1 U1M       0.050033
     32 H16          4.1740    -5.1060    23.0630 h1         1 U1M       0.062200
     33 H15          4.5050    -6.8360    23.2350 h1         1 U1M       0.062200
     34 H3           3.5660    -1.2020    26.6360 ha         1 U1M       0.119000
     35 H4           5.2180    -3.0180    26.5500 ha         1 U1M       0.134000
     36 H12          7.6800    -3.1470    22.6560 h1         1 U1M       0.065200
     37 H11          8.2540    -4.7940    22.9420 h1         1 U1M       0.065200
     38 C            0.8920    -1.3050    26.0290 c3         1 U1M      -0.057800
     39 O            4.5740    -7.1490    25.8040 o          1 U1M      -0.534000
     40 O1           6.1650    -5.4380    26.7990 o          1 U1M      -0.534000
@<TRIPOS>BOND
     1     1     7 1   
     2     1    12 1   
     3     1    15 1   
     4     2     3 ar  
     5     2    14 ar  
     6     2    17 1   
     7     3     4 1   
     8     3     5 ar  
     9     4    18 1   
    10     4    19 1   
    11     4    20 1   
    12     5    10 ar  
    13     5    21 1   
    14     6     9 1   
    15     6    15 1   
    16     6    22 1   
    17     6    23 1   
    18     7    11 1   
    19     7    24 1   
    20     7    25 1   
    21     8    12 1   
    22     8    26 1   
    23     8    27 1   
    24     8    28 1   
    25     9    11 1   
    26     9    17 1   
    27    10    13 ar  
    28    10    38 1   
    29    11    32 1   
    30    11    33 1   
    31    12    16 2   
    32    13    14 ar  
    33    13    34 1   
    34    14    35 1   
    35    15    36 1   
    36    15    37 1   
    37    17    39 2   
    38    17    40 2   
    39    29    38 1   
    40    30    38 1   
    41    31    38 1   
@<TRIPOS>SUBSTRUCTURE
     1 U1M         1 TEMP              0 ****  ****    0 ROOT
