@<TRIPOS>MOLECULE
U1M
   40    41     1     0     0
SMALL
abcg2


@<TRIPOS>ATOM
      1 N1           6.8090    -4.9410    21.6960 n          1 U1M      -0.419800
      2 C4           3.8140    -4.4760    25.8260 ca         1 U1M      -0.303500
      3 C5           2.5030    -4.7070    25.3830 ca         1 U1M       0.035700
      4 C6           1.9710    -6.0170    24.8720 c3         1 U1M      -0.066800
      5 C7           1.6190    -3.6320    25.4540 ca         1 U1M      -0.140000
      6 C8           6.5260    -4.2560    24.0210 c6         1 U1M       0.171300
      7 C10          6.0940    -6.1750    21.9470 c6         1 U1M       0.099500
      8 C13          7.6100    -3.0930    20.3060 c3         1 U1M      -0.177100
      9 N            5.8390    -5.5220    24.2700 n3         1 U1M      -0.710500
     10 C1           1.9770    -2.3740    25.9270 ca         1 U1M      -0.014300
     11 C11          5.1150    -6.0010    23.0950 c6         1 U1M       0.171300
     12 C12          6.8290    -4.3760    20.4650 c          1 U1M       0.610100
     13 C2           3.2840    -2.1860    26.3640 ca         1 U1M      -0.137000
     14 C3           4.1910    -3.2270    26.3160 ca         1 U1M      -0.025000
     15 C9           7.4950    -4.4350    22.8640 c6         1 U1M       0.099500
     16 O2           6.2420    -4.8770    19.5150 o          1 U1M      -0.601100
     17 S            5.1100    -5.6930    25.7500 sy         1 U1M       1.144600
     18 H6           2.0170    -6.7950    25.6310 hc         1 U1M       0.059033
     19 H5           0.9300    -5.8970    24.5780 hc         1 U1M       0.059033
     20 H7           2.5120    -6.3790    24.0000 hc         1 U1M       0.059033
     21 H8           0.5980    -3.7930    25.1270 ha         1 U1M       0.114000
     22 H10          5.8070    -3.4600    23.7870 h1         1 U1M       0.062200
     23 H9           7.0910    -3.9570    24.9010 h1         1 U1M       0.062200
     24 H14          5.5510    -6.4730    21.0550 h1         1 U1M       0.065200
     25 H13          6.8080    -6.9680    22.1890 h1         1 U1M       0.065200
     26 H19          7.5580    -2.7750    19.2680 hc         1 U1M       0.061367
     27 H18          7.2050    -2.2950    20.9300 hc         1 U1M       0.061367
     28 H17          8.6590    -3.2170    20.5740 hc         1 U1M       0.061367
     29 H1           1.0850    -0.6420    25.0400 hc         1 U1M       0.050033
     30 H2          -0.0370    -1.6160    25.9790 hc         1 U1M       0.050033
     31 H            1.1470    -0.5890    26.7940 hc         1 U1M       0.050033
     32 H16          4.3280    -5.2960    22.7980 h1         1 U1M       0.062200
     33 H15          4.6560    -6.9640    23.3080 h1         1 U1M       0.062200
     34 H3           3.5990    -1.2240    26.7500 ha         1 U1M       0.119000
     35 H4           5.1990    -3.0560    26.6690 ha         1 U1M       0.134000
     36 H12          7.9660    -3.4780    22.6600 h1         1 U1M       0.065200
     37 H11          8.2840    -5.1350    23.1590 h1         1 U1M       0.065200
     38 C            0.9880    -1.2490    25.9420 c3         1 U1M      -0.057800
     39 O            4.5520    -7.0340    25.7920 o          1 U1M      -0.534000
     40 O1           6.1110    -5.3240    26.7390 o          1 U1M      -0.534000
@<TRIPOS>BOND
     1     1     7 1   
     2     1    12 1   
     3     1    15 1   
     4     2     3 ar  
     5     2    14 ar  
     6     2    17 1   
     7     3     4 1   
     8     3     5 ar  
     9     4    18 1   
    10     4    19 1   
    11     4    20 1   
    12     5    10 ar  
    13     5    21 1   
    14     6     9 1   
    15     6    15 1   
    16     6    22 1   
    17     6    23 1   
    18     7    11 1   
    19     7    24 1   
    20     7    25 1   
    21     8    12 1   
    22     8    26 1   
    23     8    27 1   
    24     8    28 1   
    25     9    11 1   
    26     9    17 1   
    27    10    13 ar  
    28    10    38 1   
    29    11    32 1   
    30    11    33 1   
    31    12    16 2   
    32    13    14 ar  
    33    13    34 1   
    34    14    35 1   
    35    15    36 1   
    36    15    37 1   
    37    17    39 2   
    38    17    40 2   
    39    29    38 1   
    40    30    38 1   
    41    31    38 1   
@<TRIPOS>SUBSTRUCTURE
     1 U1M         1 TEMP              0 ****  ****    0 ROOT
