@<TRIPOS>MOLECULE
U1O
   30    32     1     0     0
SMALL
No Charge or Current Charge


@<TRIPOS>ATOM
      1 C01         -1.4930    16.8130    -7.1680 ca         1 U1O      -0.129000
      2 C02         -1.1240    15.8610    -6.2100 ca         1 U1O      -0.070000
      3 C03         -1.3190    14.4980    -6.4740 ca         1 U1O      -0.117000
      4 C04         -1.8890    14.0730    -7.6910 ca         1 U1O      -0.086000
      5 C05         -2.2680    15.0290    -8.6620 ca         1 U1O      -0.167600
      6 C06         -2.0580    16.4010    -8.3860 ca         1 U1O      -0.043000
      7 C08         -3.2150    12.1940    -9.2880 ca         1 U1O      -0.120000
      8 C09         -3.5080    13.2710   -10.1540 ca         1 U1O      -0.134600
      9 C10         -2.8950    14.6430    -9.9810 c          1 U1O       0.589300
     10 C11         -3.8250    10.9440    -9.4950 ca         1 U1O      -0.083000
     11 C12         -4.7270    10.7530   -10.5510 ca         1 U1O      -0.132000
     12 C13         -5.0320    11.8070   -11.4260 ca         1 U1O      -0.030000
     13 C14         -4.4160    13.0610   -11.2220 ca         1 U1O      -0.077000
     14 C17         -6.4800    12.3300   -13.4900 c          1 U1O       0.606100
     15 C18         -7.4530    11.5980   -14.4090 c3         1 U1O      -0.183100
     16 N16         -5.9540    11.5380   -12.4770 ns         1 U1O      -0.151000
     17 O15         -2.9180    15.4480   -10.9070 o          1 U1O      -0.522100
     18 O20         -6.2100    13.5130   -13.6590 o          1 U1O      -0.563100
     19 S07         -2.0350    12.3080    -7.9470 ss         1 U1O       0.158000
     20 H1          -1.3420    17.8720    -6.9700 ha         1 U1O       0.121000
     21 H2          -0.6830    16.1770    -5.2660 ha         1 U1O       0.117000
     22 H3          -1.0190    13.7620    -5.7300 ha         1 U1O       0.124000
     23 H4          -2.3420    17.1600    -9.1130 ha         1 U1O       0.138000
     24 H5          -3.5930    10.1110    -8.8340 ha         1 U1O       0.125000
     25 H6          -5.1860     9.7770   -10.6890 ha         1 U1O       0.112000
     26 H7          -4.6380    13.8920   -11.8840 ha         1 U1O       0.172000
     27 H8          -7.8540    12.2430   -15.1990 hc         1 U1O       0.065033
     28 H9          -6.9560    10.7130   -14.8230 hc         1 U1O       0.065033
     29 H10         -8.2510    11.1550   -13.8030 hc         1 U1O       0.065033
     30 H11         -6.2900    10.5840   -12.4880 hn         1 U1O       0.149000
@<TRIPOS>BOND
     1     1     2 ar  
     2     1     6 ar  
     3     1    20 1   
     4     2     3 ar  
     5     2    21 1   
     6     3     4 ar  
     7     3    22 1   
     8     4     5 ar  
     9     4    19 1   
    10     5     6 ar  
    11     5     9 1   
    12     6    23 1   
    13     7     8 ar  
    14     7    10 ar  
    15     7    19 1   
    16     8     9 1   
    17     8    13 ar  
    18     9    17 2   
    19    10    11 ar  
    20    10    24 1   
    21    11    12 ar  
    22    11    25 1   
    23    12    13 ar  
    24    12    16 1   
    25    13    26 1   
    26    14    15 1   
    27    14    16 1   
    28    14    18 2   
    29    15    27 1   
    30    15    28 1   
    31    15    29 1   
    32    16    30 1   
@<TRIPOS>SUBSTRUCTURE
     1 U1O         1 TEMP              0 ****  ****    0 ROOT
