@<TRIPOS>MOLECULE
U1O
   30    32     1     0     0
SMALL
abcg2


@<TRIPOS>ATOM
      1 C01         -1.2950    16.7430    -7.3510 ca         1 U1O      -0.129000
      2 C02         -0.8790    15.7860    -6.4240 ca         1 U1O      -0.070000
      3 C03         -1.2490    14.4680    -6.5740 ca         1 U1O      -0.117000
      4 C04         -2.0470    14.0810    -7.6570 ca         1 U1O      -0.086000
      5 C05         -2.4730    15.0270    -8.5940 ca         1 U1O      -0.167600
      6 C06         -2.0790    16.3620    -8.4160 ca         1 U1O      -0.043000
      7 C08         -3.4290    12.2580    -9.1500 ca         1 U1O      -0.120000
      8 C09         -3.7650    13.3180    -9.9890 ca         1 U1O      -0.134600
      9 C10         -3.3130    14.7080    -9.7650 c          1 U1O       0.589300
     10 C11         -3.9000    10.9740    -9.4470 ca         1 U1O      -0.083000
     11 C12         -4.6870    10.7600   -10.5500 ca         1 U1O      -0.132000
     12 C13         -5.0400    11.8160   -11.4060 ca         1 U1O      -0.030000
     13 C14         -4.5700    13.0850   -11.1130 ca         1 U1O      -0.077000
     14 C17         -6.3730    12.3190   -13.4490 c          1 U1O       0.606100
     15 C18         -7.2310    11.5930   -14.4540 c3         1 U1O      -0.183100
     16 N16         -5.8430    11.4980   -12.4980 ns         1 U1O      -0.151000
     17 O15         -3.6360    15.5880   -10.5460 o          1 U1O      -0.522100
     18 O20         -6.1860    13.5210   -13.4830 o          1 U1O      -0.563100
     19 S07         -2.4440    12.3930    -7.7260 ss         1 U1O       0.158000
     20 H1          -1.0040    17.7780    -7.2340 ha         1 U1O       0.121000
     21 H2          -0.2620    16.0730    -5.5830 ha         1 U1O       0.117000
     22 H3          -0.9250    13.7280    -5.8520 ha         1 U1O       0.124000
     23 H4          -2.4020    17.1010    -9.1350 ha         1 U1O       0.138000
     24 H5          -3.6460    10.1400    -8.8050 ha         1 U1O       0.125000
     25 H6          -5.0390     9.7560   -10.7580 ha         1 U1O       0.112000
     26 H7          -4.8160    13.9210   -11.7450 ha         1 U1O       0.172000
     27 H8          -7.5360    12.2710   -15.2460 hc         1 U1O       0.065033
     28 H9          -6.6970    10.7500   -14.8950 hc         1 U1O       0.065033
     29 H10         -8.1250    11.1940   -13.9720 hc         1 U1O       0.065033
     30 H11         -6.0810    10.5200   -12.5780 hn         1 U1O       0.149000
@<TRIPOS>BOND
     1     1     2 ar  
     2     1     6 ar  
     3     1    20 1   
     4     2     3 ar  
     5     2    21 1   
     6     3     4 ar  
     7     3    22 1   
     8     4     5 ar  
     9     4    19 1   
    10     5     6 ar  
    11     5     9 1   
    12     6    23 1   
    13     7     8 ar  
    14     7    10 ar  
    15     7    19 1   
    16     8     9 1   
    17     8    13 ar  
    18     9    17 2   
    19    10    11 ar  
    20    10    24 1   
    21    11    12 ar  
    22    11    25 1   
    23    12    13 ar  
    24    12    16 1   
    25    13    26 1   
    26    14    15 1   
    27    14    16 1   
    28    14    18 2   
    29    15    27 1   
    30    15    28 1   
    31    15    29 1   
    32    16    30 1   
@<TRIPOS>SUBSTRUCTURE
     1 U1O         1 TEMP              0 ****  ****    0 ROOT
