@<TRIPOS>MOLECULE
U1P
   35    36     1     0     0
SMALL
No Charge or Current Charge


@<TRIPOS>ATOM
      1 O1P         -5.0730    -0.8710    -0.3480 o          1 U1P      -0.923500
      2 P           -4.1390     0.1150    -0.9550 p5         1 U1P       1.270900
      3 O2P         -3.3290    -0.5340    -2.0190 o          1 U1P      -0.923500
      4 O3P         -4.9310     1.2220    -1.5580 o          1 U1P      -0.923500
      5 N1           2.1970     0.1510    -0.0680 n          1 U1P      -0.299000
      6 C2           2.2210     1.0220     1.0530 c          1 U1P       0.623000
      7 O2           1.3380     1.1010     1.8900 o          1 U1P      -0.535000
      8 N3           3.3300     1.7920     1.1950 ns         1 U1P      -0.471500
      9 C4           4.4340     1.8270     0.4190 c          1 U1P       0.596200
     10 O4           5.3640     2.5830     0.6370 o          1 U1P      -0.567000
     11 C6           3.3360     0.0090    -0.9000 cc         1 U1P       0.064000
     12 C5           4.4000     0.8620    -0.6710 cd         1 U1P      -0.379200
     13 O5          -3.1930     0.7370     0.1910 os         1 U1P      -0.569400
     14 C10         -2.4360    -0.0920     1.0960 c3         1 U1P       0.258600
     15 C9          -1.2380    -0.8040     0.3970 c5         1 U1P       0.155300
     16 C3          -0.3670    -1.6810     1.3510 c5         1 U1P       0.089300
     17 O3          -0.9700    -2.9440     1.7070 oh         1 U1P      -0.703000
     18 C8           0.8980    -1.9070     0.4650 c5         1 U1P       0.094300
     19 O6           0.6840    -3.0850    -0.3210 oh         1 U1P      -0.739000
     20 O7          -0.2720     0.1560    -0.0840 os         1 U1P      -0.408000
     21 C1           0.9280    -0.5810    -0.3910 c5         1 U1P       0.319700
     22 C7           3.3290    -0.9970    -1.9940 ce         1 U1P       0.463500
     23 N8           4.1810    -0.9550    -2.9730 n2         1 U1P      -0.749100
     24 HN3          3.3270     2.4200     1.9820 hn         1 U1P       0.332500
     25 H5           5.2930     0.8480    -1.2850 ha         1 U1P       0.221000
     26 H6          -2.0450     0.5210     1.9190 h1         1 U1P       0.011700
     27 H5'A        -3.0850    -0.8560     1.5450 h1         1 U1P       0.011700
     28 H4          -1.6000    -1.4080    -0.4430 h1         1 U1P       0.068700
     29 H3          -0.0990    -1.1090     2.2520 h1         1 U1P       0.081700
     30 HO3         -1.4950    -2.8060     2.5320 ho         1 U1P       0.491000
     31 H2           1.7980    -2.0200     1.0870 h1         1 U1P       0.049700
     32 HO2         -0.0220    -3.5500     0.2040 ho         1 U1P       0.525000
     33 H1           0.9220    -0.8040    -1.4630 h2         1 U1P       0.058700
     34 H7           2.6190    -1.8210    -1.9190 h4         1 U1P       0.023800
     35 HN8          4.0220    -1.7630    -3.5940 hn         1 U1P       0.382400
@<TRIPOS>BOND
     1     1     2 1   
     2     2     3 1   
     3     2     4 1   
     4     2    13 1   
     5     5     6 1   
     6     5    11 1   
     7     5    21 1   
     8     6     7 2   
     9     6     8 1   
    10     8     9 1   
    11     8    24 1   
    12     9    10 2   
    13     9    12 1   
    14    11    12 2   
    15    11    22 1   
    16    12    25 1   
    17    13    14 1   
    18    14    15 1   
    19    14    26 1   
    20    14    27 1   
    21    15    16 1   
    22    15    20 1   
    23    15    28 1   
    24    16    17 1   
    25    16    18 1   
    26    16    29 1   
    27    17    30 1   
    28    18    19 1   
    29    18    21 1   
    30    18    31 1   
    31    19    32 1   
    32    20    21 1   
    33    21    33 1   
    34    22    23 2   
    35    22    34 1   
    36    23    35 1   
@<TRIPOS>SUBSTRUCTURE
     1 U1P         1 TEMP              0 ****  ****    0 ROOT
