@<TRIPOS>MOLECULE
U1P
   35    36     1     0     0
SMALL
abcg2


@<TRIPOS>ATOM
      1 O1P         -4.4600     1.6550     0.2550 o          1 U1P      -0.923500
      2 P           -4.3680     0.5980    -0.8400 p5         1 U1P       1.270900
      3 O2P         -5.1550    -0.6740    -0.5460 o          1 U1P      -0.923500
      4 O3P         -4.4970     1.1230    -2.2630 o          1 U1P      -0.923500
      5 N1           2.2400    -0.0140     0.0530 n          1 U1P      -0.299000
      6 C2           2.2060     0.6530     1.2640 c          1 U1P       0.623000
      7 O2           1.3480     0.4610     2.0970 o          1 U1P      -0.535000
      8 N3           3.2300     1.5360     1.4740 ns         1 U1P      -0.471500
      9 C4           4.2520     1.8690     0.6030 c          1 U1P       0.596200
     10 O4           5.1150     2.6620     0.9290 o          1 U1P      -0.567000
     11 C6           3.1530     0.3410    -0.9170 cc         1 U1P       0.064000
     12 C5           4.1440     1.2200    -0.6800 cd         1 U1P      -0.379200
     13 O5          -2.7300     0.1100    -0.8360 os         1 U1P      -0.569400
     14 C10         -2.2140    -0.3920     0.3560 c3         1 U1P       0.258600
     15 C9          -1.0180    -1.2690     0.0740 c5         1 U1P       0.155300
     16 C3          -0.4060    -1.9040     1.3190 c5         1 U1P       0.089300
     17 O3          -1.0710    -3.1070     1.6170 oh         1 U1P      -0.703000
     18 C8           1.0620    -2.1270     0.9030 c5         1 U1P       0.094300
     19 O6           1.2150    -3.3930     0.3110 oh         1 U1P      -0.739000
     20 O7           0.0300    -0.4880    -0.4830 os         1 U1P      -0.408000
     21 C1           1.2680    -1.0700    -0.2030 c5         1 U1P       0.319700
     22 C7           2.9720    -0.2000    -2.2870 ce         1 U1P       0.463500
     23 N8           3.9800    -0.5240    -2.9710 n2         1 U1P      -0.749100
     24 HN3          3.2200     2.0020     2.3730 hn         1 U1P       0.332500
     25 H5           4.8320     1.4890    -1.4670 ha         1 U1P       0.221000
     26 H6          -1.9050     0.4100     1.0440 h1         1 U1P       0.011700
     27 H5'A        -2.9450    -1.0070     0.8990 h1         1 U1P       0.011700
     28 H4          -1.3080    -2.0670    -0.6270 h1         1 U1P       0.068700
     29 H3          -0.4500    -1.2080     2.1590 h1         1 U1P       0.081700
     30 HO3         -0.9750    -3.2910     2.5570 ho         1 U1P       0.491000
     31 H2           1.7590    -2.0090     1.7370 h1         1 U1P       0.049700
     32 HO2          0.5070    -3.9510     0.6610 ho         1 U1P       0.525000
     33 H1           1.6550    -1.6160    -1.0690 h2         1 U1P       0.058700
     34 H7           1.9470    -0.2300    -2.6590 h4         1 U1P       0.023800
     35 HN8          3.6970    -0.8110    -3.9040 hn         1 U1P       0.382400
@<TRIPOS>BOND
     1     1     2 1   
     2     2     3 1   
     3     2     4 1   
     4     2    13 1   
     5     5     6 1   
     6     5    11 1   
     7     5    21 1   
     8     6     7 2   
     9     6     8 1   
    10     8     9 1   
    11     8    24 1   
    12     9    10 2   
    13     9    12 1   
    14    11    12 2   
    15    11    22 1   
    16    12    25 1   
    17    13    14 1   
    18    14    15 1   
    19    14    26 1   
    20    14    27 1   
    21    15    16 1   
    22    15    20 1   
    23    15    28 1   
    24    16    17 1   
    25    16    18 1   
    26    16    29 1   
    27    17    30 1   
    28    18    19 1   
    29    18    21 1   
    30    18    31 1   
    31    19    32 1   
    32    20    21 1   
    33    21    33 1   
    34    22    23 2   
    35    22    34 1   
    36    23    35 1   
@<TRIPOS>SUBSTRUCTURE
     1 U1P         1 TEMP              0 ****  ****    0 ROOT
