@<TRIPOS>MOLECULE
U1Q
   13    13     1     0     0
SMALL
abcg2


@<TRIPOS>ATOM
      1 C02         -1.3830     4.5520     9.2280 ca         1 U1Q       0.581900
      2 C03         -2.6860     4.3010     9.6960 ca         1 U1Q      -0.204000
      3 C04         -2.8600     3.4380    10.7540 ca         1 U1Q      -0.072000
      4 C05         -1.7350     2.8520    11.3120 ca         1 U1Q       0.058000
      5 C07         -0.4920     3.1350    10.7960 ca         1 U1Q       0.353900
      6 F06         -1.8570     2.0090    12.3520 f          1 U1Q      -0.174000
      7 N01         -1.1590     5.4490     8.2210 nv         1 U1Q      -1.048900
      8 N08         -0.3210     3.9660     9.7720 nb         1 U1Q      -0.725000
      9 H1          -3.5380     4.7790     9.2320 ha         1 U1Q       0.125000
     10 H2          -3.8490     3.2220    11.1380 ha         1 U1Q       0.133000
     11 H3           0.3980     2.6770    11.2150 h4         1 U1Q       0.033100
     12 H4          -0.2700     5.3750     7.7540 hn         1 U1Q       0.470000
     13 H5          -1.9270     5.6520     7.6030 hn         1 U1Q       0.470000
@<TRIPOS>BOND
     1     1     2 ar  
     2     1     7 1   
     3     1     8 ar  
     4     2     3 ar  
     5     2     9 1   
     6     3     4 ar  
     7     3    10 1   
     8     4     5 ar  
     9     4     6 1   
    10     5     8 ar  
    11     5    11 1   
    12     7    12 1   
    13     7    13 1   
@<TRIPOS>SUBSTRUCTURE
     1 U1Q         1 TEMP              0 ****  ****    0 ROOT
