@<TRIPOS>MOLECULE
U1Q
   13    13     1     0     0
SMALL
No Charge or Current Charge


@<TRIPOS>ATOM
      1 C02         -1.4230     4.5790     9.2370 ca         1 U1Q       0.581900
      2 C03         -2.7210     4.3270     9.7000 ca         1 U1Q      -0.204000
      3 C04         -2.8910     3.4310    10.7710 ca         1 U1Q      -0.072000
      4 C05         -1.7390     2.8380    11.3130 ca         1 U1Q       0.058000
      5 C07         -0.4780     3.1630    10.7650 ca         1 U1Q       0.353900
      6 F06         -1.8420     1.9680    12.3440 f          1 U1Q      -0.174000
      7 N01         -1.1450     5.4040     8.2250 nv         1 U1Q      -1.048900
      8 N08         -0.3180     4.0290     9.7290 nb         1 U1Q      -0.725000
      9 H1          -3.5760     4.8160     9.2430 ha         1 U1Q       0.125000
     10 H2          -3.8780     3.2030    11.1680 ha         1 U1Q       0.133000
     11 H3           0.4310     2.7150    11.1670 h4         1 U1Q       0.033100
     12 H4          -0.2100     5.3180     7.8430 hn         1 U1Q       0.470000
     13 H5          -1.8880     5.6160     7.5670 hn         1 U1Q       0.470000
@<TRIPOS>BOND
     1     1     2 ar  
     2     1     7 1   
     3     1     8 ar  
     4     2     3 ar  
     5     2     9 1   
     6     3     4 ar  
     7     3    10 1   
     8     4     5 ar  
     9     4     6 1   
    10     5     8 ar  
    11     5    11 1   
    12     7    12 1   
    13     7    13 1   
@<TRIPOS>SUBSTRUCTURE
     1 U1Q         1 TEMP              0 ****  ****    0 ROOT
