@<TRIPOS>MOLECULE
U1R
   33    35     1     0     0
SMALL
No Charge or Current Charge


@<TRIPOS>ATOM
      1 C10         -3.8820     2.4080    13.8660 c3         1 U1R       0.215900
      2 C13         -2.3920     1.0280    10.6110 ca         1 U1R      -0.098000
      3 C15         -2.2650    -1.2440     9.7250 ca         1 U1R      -0.100000
      4 C17         -3.1990    -3.0990    10.9970 ca         1 U1R      -0.106000
      5 C20         -3.7230     0.0660    12.8940 ca         1 U1R      -0.067000
      6 C21         -4.0380     4.0650    16.2430 ca         1 U1R      -0.159000
      7 C02         -4.0460     4.8420    17.4130 ca         1 U1R      -0.012900
      8 C03         -2.9390     4.7960    18.2810 ca         1 U1R       0.318900
      9 C05         -1.8280     3.2660    16.9020 ca         1 U1R       0.222500
     10 C06         -0.6070     2.4030    16.6280 c          1 U1R       0.479400
     11 C08         -2.9080     3.2580    15.9770 ca         1 U1R       0.140100
     12 C11         -3.4570     1.4430    12.7680 ca         1 U1R      -0.103300
     13 C12         -2.7880     1.9190    11.6240 ca         1 U1R      -0.086000
     14 C14         -2.6600    -0.3480    10.7360 ca         1 U1R      -0.026000
     15 C16         -2.5350    -2.6180     9.8560 ca         1 U1R      -0.099000
     16 C18         -3.5960    -2.2080    12.0100 ca         1 U1R      -0.094000
     17 C19         -3.3280    -0.8310    11.8830 ca         1 U1R      -0.043000
     18 N04         -1.8490     4.0280    18.0390 nb         1 U1R      -0.588000
     19 O07          0.3780     2.3380    17.3640 o          1 U1R      -0.486100
     20 O09         -2.8300     2.4670    14.8440 os         1 U1R      -0.345100
     21 H1          -4.0650     3.4000    13.4320 h1         1 U1R       0.050200
     22 H2          -4.8170     2.0550    14.3210 h1         1 U1R       0.050200
     23 H3          -1.8770     1.4080     9.7320 ha         1 U1R       0.118000
     24 H4          -1.7510    -0.8800     8.8390 ha         1 U1R       0.116000
     25 H5          -3.4070    -4.1620    11.0970 ha         1 U1R       0.116000
     26 H6          -4.2350    -0.3070    13.7790 ha         1 U1R       0.114000
     27 H7          -4.8940     4.1020    15.5750 ha         1 U1R       0.139000
     28 H8          -2.9230     5.3900    19.1940 h4         1 U1R       0.045100
     29 H9          -0.6340     1.8010    15.6930 h4         1 U1R       0.017200
     30 H10         -2.5730     2.9800    11.5180 ha         1 U1R       0.119000
     31 H11         -2.2290    -3.3090     9.0730 ha         1 U1R       0.116000
     32 H12         -4.1090    -2.5880    12.8900 ha         1 U1R       0.115000
     33 Br01        -5.5510     5.9510    17.8200 br         1 U1R      -0.080100
@<TRIPOS>BOND
     1     1    12 1   
     2     1    20 1   
     3     1    21 1   
     4     1    22 1   
     5     2    13 ar  
     6     2    14 ar  
     7     2    23 1   
     8     3    14 ar  
     9     3    15 ar  
    10     3    24 1   
    11     4    15 ar  
    12     4    16 ar  
    13     4    25 1   
    14     5    12 ar  
    15     5    17 ar  
    16     5    26 1   
    17     6     7 ar  
    18     6    11 ar  
    19     6    27 1   
    20     7     8 ar  
    21     7    33 1   
    22     8    18 ar  
    23     8    28 1   
    24     9    10 1   
    25     9    11 ar  
    26     9    18 ar  
    27    10    19 2   
    28    10    29 1   
    29    11    20 1   
    30    12    13 ar  
    31    13    30 1   
    32    14    17 ar  
    33    15    31 1   
    34    16    17 ar  
    35    16    32 1   
@<TRIPOS>SUBSTRUCTURE
     1 U1R         1 TEMP              0 ****  ****    0 ROOT
