@<TRIPOS>MOLECULE
U1R
   33    35     1     0     0
SMALL
abcg2


@<TRIPOS>ATOM
      1 C10         -3.9010     2.1990    14.0290 c3         1 U1R       0.215900
      2 C13         -2.0750     0.9280    10.9720 ca         1 U1R      -0.098000
      3 C15         -2.1130    -1.2830     9.8450 ca         1 U1R      -0.100000
      4 C17         -3.5270    -3.0340    10.7250 ca         1 U1R      -0.106000
      5 C20         -3.9170    -0.0010    12.8570 ca         1 U1R      -0.067000
      6 C21         -4.0950     3.8830    16.3050 ca         1 U1R      -0.159000
      7 C02         -4.0830     4.7020    17.4150 ca         1 U1R      -0.012900
      8 C03         -2.9070     4.9170    18.1380 ca         1 U1R       0.318900
      9 C05         -1.7400     3.5340    16.7120 ca         1 U1R       0.222500
     10 C06         -0.4430     2.9130    16.3630 c          1 U1R       0.479400
     11 C08         -2.8900     3.2750    15.9340 ca         1 U1R       0.140100
     12 C11         -3.4460     1.2860    12.9350 ca         1 U1R      -0.103300
     13 C12         -2.5150     1.7520    11.9730 ca         1 U1R      -0.086000
     14 C14         -2.5460    -0.4050    10.8680 ca         1 U1R      -0.026000
     15 C16         -2.5920    -2.5670     9.7750 ca         1 U1R      -0.099000
     16 C18         -3.9660    -2.2070    11.7280 ca         1 U1R      -0.094000
     17 C19         -3.4900    -0.8770    11.8290 ca         1 U1R      -0.043000
     18 N04         -1.7750     4.3390    17.7800 nb         1 U1R      -0.588000
     19 O07          0.5810     3.0840    16.9950 o          1 U1R      -0.486100
     20 O09         -2.7570     2.4530    14.8850 os         1 U1R      -0.345100
     21 H1          -4.2490     3.1560    13.6310 h1         1 U1R       0.050200
     22 H2          -4.6960     1.7410    14.6180 h1         1 U1R       0.050200
     23 H3          -1.3620     1.2880    10.2400 ha         1 U1R       0.118000
     24 H4          -1.3970    -0.9220     9.1170 ha         1 U1R       0.116000
     25 H5          -3.8980    -4.0490    10.6570 ha         1 U1R       0.116000
     26 H6          -4.6270    -0.3640    13.5910 ha         1 U1R       0.114000
     27 H7          -5.0060     3.7190    15.7520 ha         1 U1R       0.139000
     28 H8          -2.8990     5.5610    19.0080 h4         1 U1R       0.045100
     29 H9          -0.4530     2.2670    15.4740 h4         1 U1R       0.017200
     30 H10         -2.1510     2.7700    12.0400 ha         1 U1R       0.119000
     31 H11         -2.2540    -3.2300     8.9890 ha         1 U1R       0.116000
     32 H12         -4.6840    -2.5600    12.4590 ha         1 U1R       0.115000
     33 BR01        -5.6860     5.5540    17.9850 br         1 U1R      -0.080100
@<TRIPOS>BOND
     1     1    12 1   
     2     1    20 1   
     3     1    21 1   
     4     1    22 1   
     5     2    13 ar  
     6     2    14 ar  
     7     2    23 1   
     8     3    14 ar  
     9     3    15 ar  
    10     3    24 1   
    11     4    15 ar  
    12     4    16 ar  
    13     4    25 1   
    14     5    12 ar  
    15     5    17 ar  
    16     5    26 1   
    17     6     7 ar  
    18     6    11 ar  
    19     6    27 1   
    20     7     8 ar  
    21     7    33 1   
    22     8    18 ar  
    23     8    28 1   
    24     9    10 1   
    25     9    11 ar  
    26     9    18 ar  
    27    10    19 2   
    28    10    29 1   
    29    11    20 1   
    30    12    13 ar  
    31    13    30 1   
    32    14    17 ar  
    33    15    31 1   
    34    16    17 ar  
    35    16    32 1   
@<TRIPOS>SUBSTRUCTURE
     1 U1R         1 TEMP              0 ****  ****    0 ROOT
