@<TRIPOS>MOLECULE
U1S
   52    54     1     0     0
SMALL
bcc


@<TRIPOS>ATOM
      1 C4          -4.4600    -3.2570    -0.5380 c          1 U1S       0.733700
      2 C5          -4.8100    -2.3080    -1.5660 cc         1 U1S      -0.331200
      3 C6          -4.3020    -1.0670    -1.5190 cd         1 U1S       0.065600
      4 N1          -3.4640    -0.6290    -0.5330 n          1 U1S      -0.386000
      5 N3          -3.6000    -2.7370     0.4180 ns         1 U1S      -0.604500
      6 CAV          4.0930     0.6130    -0.3370 c6         1 U1S      -0.121700
      7 CAK          3.4420     1.1730    -1.5940 c6         1 U1S      -0.065900
      8 CAM          2.3030     2.1140    -1.2320 c6         1 U1S       0.163300
      9 CAJ          3.0190    -0.0330     0.5440 c6         1 U1S      -0.065900
     10 CAL          1.8970     0.9550     0.8190 c6         1 U1S       0.163300
     11 NBA          1.3020     1.4550    -0.4090 n3         1 U1S      -0.702600
     12 C7          -1.0470     1.6380     0.3720 c5         1 U1S       0.148100
     13 O4          -1.5650     0.7620    -0.6280 os         1 U1S      -0.373600
     14 C3          -2.2010     2.5820     0.6860 c5         1 U1S       0.082100
     15 O3          -2.0180     3.1710     1.9420 oh         1 U1S      -0.576800
     16 C2          -3.3970     1.6370     0.5780 c5         1 U1S       0.063100
     17 O2          -4.6240     2.2300     0.2570 oh         1 U1S      -0.588800
     18 C1          -2.9580     0.7410    -0.5810 c5         1 U1S       0.320500
     19 O1          -4.8430    -4.4090    -0.4650 o          1 U1S      -0.600500
     20 C9          -3.0790    -1.4720     0.4930 c          1 U1S       0.830500
     21 O5          -2.3410    -1.1320     1.3930 o          1 U1S      -0.632500
     22 H5          -5.4680    -2.6020    -2.3690 ha         1 U1S       0.174000
     23 H6          -4.5380    -0.3380    -2.2810 h4         1 U1S       0.157000
     24 HN3         -3.3160    -3.3620     1.1630 hn         1 U1S       0.341500
     25 C15          7.3110    -2.1160     1.7220 c3         1 U1S      -0.097100
     26 HAV          4.5360     1.4410     0.2320 hc         1 U1S       0.070700
     27 HAK          4.1680     1.7160    -2.2010 hc         1 U1S       0.062200
     28 HAKA         3.0520     0.3570    -2.2070 hc         1 U1S       0.062200
     29 HAM          2.7140     3.0070    -0.7270 h1         1 U1S       0.033700
     30 HAMA         1.8250     2.4650    -2.1480 h1         1 U1S       0.033700
     31 HAJ          2.6130    -0.9160     0.0410 hc         1 U1S       0.062200
     32 HAJA         3.4350    -0.3620     1.4960 hc         1 U1S       0.062200
     33 HAL          1.1360     0.4510     1.4170 h1         1 U1S       0.033700
     34 HALA         2.2880     1.7830     1.4380 h1         1 U1S       0.033700
     35 H4          -0.8120     1.0630     1.2750 h1         1 U1S       0.088700
     36 H3          -2.2800     3.3410    -0.1080 h1         1 U1S       0.052700
     37 HO3         -2.6060     3.9290     2.0180 ho         1 U1S       0.412000
     38 H2          -3.4630     1.0640     1.5090 h1         1 U1S       0.083700
     39 HO2         -5.0480     2.5200     1.0690 ho         1 U1S       0.418000
     40 H1          -3.3630     1.1550    -1.5110 h2         1 U1S       0.078700
     41 C16          6.8620    -1.7460     0.3290 c3         1 U1S       0.144400
     42 H21          6.5030    -2.5660     2.2970 hc         1 U1S       0.046367
     43 H22          8.1200    -2.8430     1.6550 hc         1 U1S       0.046367
     44 H23          7.6860    -1.2500     2.2670 hc         1 U1S       0.046367
     45 H24          7.6830    -1.3070    -0.2420 h1         1 U1S       0.047700
     46 H25          6.5100    -2.6260    -0.2130 h1         1 U1S       0.047700
     47 C8           0.1850     2.3430    -0.1510 c3         1 U1S       0.171800
     48 C17          5.2090    -0.3530    -0.6520 c          1 U1S       0.647100
     49 H7           0.4510     3.1400     0.5650 h1         1 U1S       0.043200
     50 H5'A        -0.0840     2.8430    -1.0860 h1         1 U1S       0.043200
     51 O6           5.7950    -0.7940     0.4530 os         1 U1S      -0.430900
     52 O7           5.5400    -0.6960    -1.7610 o          1 U1S      -0.538000
@<TRIPOS>BOND
     1     1     2 1   
     2     1     5 1   
     3     1    19 2   
     4     2     3 2   
     5     2    22 1   
     6     3     4 1   
     7     3    23 1   
     8     4    18 1   
     9     4    20 1   
    10     5    20 1   
    11     5    24 1   
    12     6     7 1   
    13     6     9 1   
    14     6    26 1   
    15     6    48 1   
    16     7     8 1   
    17     7    27 1   
    18     7    28 1   
    19     8    11 1   
    20     8    29 1   
    21     8    30 1   
    22     9    10 1   
    23     9    31 1   
    24     9    32 1   
    25    10    11 1   
    26    10    33 1   
    27    10    34 1   
    28    11    47 1   
    29    12    13 1   
    30    12    14 1   
    31    12    35 1   
    32    12    47 1   
    33    13    18 1   
    34    14    15 1   
    35    14    16 1   
    36    14    36 1   
    37    15    37 1   
    38    16    17 1   
    39    16    18 1   
    40    16    38 1   
    41    17    39 1   
    42    18    40 1   
    43    20    21 2   
    44    25    41 1   
    45    25    42 1   
    46    25    43 1   
    47    25    44 1   
    48    41    45 1   
    49    41    46 1   
    50    41    51 1   
    51    47    49 1   
    52    47    50 1   
    53    48    51 1   
    54    48    52 2   
@<TRIPOS>SUBSTRUCTURE
     1 U1S         1 TEMP              0 ****  ****    0 ROOT
