@<TRIPOS>MOLECULE
U1S
   52    54     1     0     0
SMALL
No Charge or Current Charge


@<TRIPOS>ATOM
      1 C4          -4.8030    -3.1200    -0.5030 c          1 U1S       0.591200
      2 C5          -5.3230    -2.0990    -1.4050 cc         1 U1S      -0.381200
      3 C6          -4.7710    -0.8410    -1.4740 cd         1 U1S       0.015600
      4 N1          -3.6800    -0.5260    -0.6650 n          1 U1S      -0.319000
      5 N3          -3.7560    -2.6960     0.2460 ns         1 U1S      -0.470500
      6 CAV          3.9770     0.0770    -0.0030 c6         1 U1S      -0.121700
      7 CAK          3.6850     1.0840    -1.1420 c6         1 U1S      -0.065900
      8 CAM          2.5690     2.0740    -0.7300 c6         1 U1S       0.163300
      9 CAJ          2.6920    -0.5920     0.5430 c6         1 U1S      -0.065900
     10 CAL          1.6140     0.4670     0.8810 c6         1 U1S       0.163300
     11 NBA          1.3350     1.3680    -0.2780 n3         1 U1S      -0.702600
     12 C7          -1.1790     1.7000     0.2830 c5         1 U1S       0.171300
     13 O4          -1.6050     0.7980    -0.7740 os         1 U1S      -0.420000
     14 C3          -2.3460     2.7280     0.3860 c5         1 U1S       0.105300
     15 O3          -2.3160     3.5290     1.5780 oh         1 U1S      -0.699000
     16 C2          -3.5420     1.7310     0.3560 c5         1 U1S       0.086300
     17 O2          -4.8090     2.3810     0.1210 oh         1 U1S      -0.711000
     18 C1          -3.0500     0.8160    -0.8200 c5         1 U1S       0.343700
     19 O1          -5.2550    -4.2480    -0.4120 o          1 U1S      -0.525000
     20 C9          -3.1570    -1.4740     0.2460 c          1 U1S       0.621000
     21 O5          -2.2470    -1.2510     1.0270 o          1 U1S      -0.557000
     22 H5          -6.1690    -2.3950    -2.0170 ha         1 U1S       0.224000
     23 H6          -5.1180    -0.0410    -2.1260 h4         1 U1S       0.207000
     24 HN3         -3.3770    -3.3680     0.8930 hn         1 U1S       0.341500
     25 C15          8.4180    -1.2830     1.2650 c3         1 U1S      -0.097100
     26 HAV          4.3720     0.6780     0.8280 hc         1 U1S       0.070700
     27 HAK          4.5960     1.6390    -1.4050 hc         1 U1S       0.062200
     28 HAKA         3.3730     0.5420    -2.0460 hc         1 U1S       0.062200
     29 HAM          2.9460     2.7250     0.0730 h1         1 U1S       0.033700
     30 HAMA         2.3430     2.7210    -1.5900 h1         1 U1S       0.033700
     31 HAJ          2.2910    -1.2890    -0.2050 hc         1 U1S       0.062200
     32 HAJA         2.9210    -1.1880     1.4370 hc         1 U1S       0.062200
     33 HAL          0.7050    -0.0680     1.1870 h1         1 U1S       0.033700
     34 HALA         1.9490     1.0570     1.7470 h1         1 U1S       0.033700
     35 H4          -1.1060     1.1310     1.2190 h1         1 U1S       0.088700
     36 H3          -2.3540     3.3740    -0.5040 h1         1 U1S       0.052700
     37 HO3         -2.9780     4.2510     1.4600 ho         1 U1S       0.511000
     38 H2          -3.5750     1.1530     1.2910 h1         1 U1S       0.083700
     39 HO2         -5.1750     2.6430     0.9990 ho         1 U1S       0.517000
     40 H1          -3.3710     1.2270    -1.7850 h2         1 U1S       0.078700
     41 C16          7.3270    -1.6550     0.2490 c3         1 U1S       0.167600
     42 H21          8.0490    -1.4030     2.2900 hc         1 U1S       0.046367
     43 H22          9.2930    -1.9310     1.1360 hc         1 U1S       0.046367
     44 H23          8.7370    -0.2430     1.1260 hc         1 U1S       0.046367
     45 H24          7.7200    -1.5420    -0.7700 h1         1 U1S       0.047700
     46 H25          7.0320    -2.7030     0.3960 h1         1 U1S       0.047700
     47 C8           0.2140     2.3230    -0.0310 c3         1 U1S       0.171800
     48 C17          5.1070    -0.9180    -0.3270 c          1 U1S       0.598100
     49 H7           0.4760     2.9890     0.8020 h1         1 U1S       0.043200
     50 H5'A         0.0870     2.9640    -0.9150 h1         1 U1S       0.043200
     51 O6           6.2130    -0.7730     0.4700 os         1 U1S      -0.454100
     52 O7           5.0110    -1.7540    -1.2160 o          1 U1S      -0.489000
@<TRIPOS>BOND
     1     1     2 1   
     2     1     5 1   
     3     1    19 2   
     4     2     3 2   
     5     2    22 1   
     6     3     4 1   
     7     3    23 1   
     8     4    18 1   
     9     4    20 1   
    10     5    20 1   
    11     5    24 1   
    12     6     7 1   
    13     6     9 1   
    14     6    26 1   
    15     6    48 1   
    16     7     8 1   
    17     7    27 1   
    18     7    28 1   
    19     8    11 1   
    20     8    29 1   
    21     8    30 1   
    22     9    10 1   
    23     9    31 1   
    24     9    32 1   
    25    10    11 1   
    26    10    33 1   
    27    10    34 1   
    28    11    47 1   
    29    12    13 1   
    30    12    14 1   
    31    12    35 1   
    32    12    47 1   
    33    13    18 1   
    34    14    15 1   
    35    14    16 1   
    36    14    36 1   
    37    15    37 1   
    38    16    17 1   
    39    16    18 1   
    40    16    38 1   
    41    17    39 1   
    42    18    40 1   
    43    20    21 2   
    44    25    41 1   
    45    25    42 1   
    46    25    43 1   
    47    25    44 1   
    48    41    45 1   
    49    41    46 1   
    50    41    51 1   
    51    47    49 1   
    52    47    50 1   
    53    48    51 1   
    54    48    52 2   
@<TRIPOS>SUBSTRUCTURE
     1 U1S         1 TEMP              0 ****  ****    0 ROOT
