@<TRIPOS>MOLECULE
U1T
   46    49     1     0     0
SMALL
abcg2


@<TRIPOS>ATOM
      1 C13         -6.5650     0.2960     0.1430 c5         1 U1T       0.156800
      2 C14         -7.1340    -0.2370    -1.1730 c5         1 U1T      -0.078900
      3 C15         -6.0430    -1.1960    -1.6980 c5         1 U1T      -0.078900
      4 C16         -4.9540    -1.1530    -0.6260 c5         1 U1T       0.156800
      5 N2          -5.1290     0.1550    -0.0180 n3         1 U1T      -0.717600
      6 C12         -4.3870     0.3460     1.2050 c3         1 U1T       0.213100
      7 C9          -2.9020     0.3470     0.9650 ca         1 U1T      -0.069300
      8 C10         -2.3400     1.2130     0.0290 ca         1 U1T      -0.098000
      9 C11         -0.9740     1.2290    -0.1950 ca         1 U1T      -0.094500
     10 C8          -2.0590    -0.5070     1.6660 ca         1 U1T      -0.098000
     11 C7          -0.6890    -0.4970     1.4470 ca         1 U1T      -0.094500
     12 C6          -0.1290     0.3670     0.5100 ca         1 U1T      -0.076800
     13 C5           1.3210     0.3550     0.2650 cc         1 U1T       0.120400
     14 C4           2.0680    -0.7730     0.2600 cd         1 U1T      -0.252200
     15 C3           3.4730    -0.7090    -0.0110 ca         1 U1T       0.019200
     16 C17          4.2840    -1.8690    -0.0180 ca         1 U1T      -0.088300
     17 C21          3.6960    -3.2180     0.2720 c3         1 U1T      -0.044800
     18 C18          5.6290    -1.7320    -0.2930 ca         1 U1T      -0.078000
     19 C19          6.2060    -0.4870    -0.5630 ca         1 U1T      -0.132000
     20 C20          5.4250     0.6450    -0.5590 ca         1 U1T      -0.048000
     21 C2           4.0570     0.5420    -0.2850 ca         1 U1T      -0.166600
     22 C1           3.2440     1.7570    -0.2770 c          1 U1T       0.572600
     23 O1           3.6790     2.8820    -0.4880 o          1 U1T      -0.559000
     24 N1           1.9180     1.5630     0.0050 ns         1 U1T      -0.383100
     25 H131        -6.8350     1.3360     0.3420 h1         1 U1T       0.036700
     26 H132        -6.9380    -0.3050     0.9890 h1         1 U1T       0.036700
     27 H141        -8.0900    -0.7360    -1.0170 hc         1 U1T       0.047450
     28 H142        -7.3060     0.5750    -1.8800 hc         1 U1T       0.047450
     29 H151        -6.4110    -2.2090    -1.8540 hc         1 U1T       0.047450
     30 H152        -5.6520    -0.8460    -2.6550 hc         1 U1T       0.047450
     31 H161        -5.1090    -1.9610     0.1110 h1         1 U1T       0.036700
     32 H162        -3.9480    -1.2740    -1.0310 h1         1 U1T       0.036700
     33 H121        -4.6810     1.3090     1.6340 h1         1 U1T       0.039700
     34 H122        -4.6330    -0.4190     1.9620 h1         1 U1T       0.039700
     35 H10         -2.9820     1.8750    -0.5380 ha         1 U1T       0.123500
     36 H8          -2.4750    -1.1860     2.4010 ha         1 U1T       0.123500
     37 H11         -0.5730     1.8990    -0.9460 ha         1 U1T       0.119000
     38 H7          -0.0530    -1.1580     2.0210 ha         1 U1T       0.119000
     39 H4           1.5870    -1.7230     0.4310 ha         1 U1T       0.198000
     40 H1           1.3570     2.4020     0.0720 hn         1 U1T       0.327500
     41 H211         2.9210    -3.4860    -0.4480 hc         1 U1T       0.042033
     42 H212         4.4620    -3.9910     0.2350 hc         1 U1T       0.042033
     43 H213         3.2370    -3.2520     1.2620 hc         1 U1T       0.042033
     44 H18          6.2580    -2.6150    -0.3010 ha         1 U1T       0.111000
     45 H19          7.2650    -0.4190    -0.7730 ha         1 U1T       0.118000
     46 H20          5.8590     1.6140    -0.7670 ha         1 U1T       0.136000
@<TRIPOS>BOND
     1     1     2 1   
     2     1     5 1   
     3     1    25 1   
     4     1    26 1   
     5     2     3 1   
     6     2    27 1   
     7     2    28 1   
     8     3     4 1   
     9     3    29 1   
    10     3    30 1   
    11     4     5 1   
    12     4    31 1   
    13     4    32 1   
    14     5     6 1   
    15     6     7 1   
    16     6    33 1   
    17     6    34 1   
    18     7     8 ar  
    19     7    10 ar  
    20     8     9 ar  
    21     8    35 1   
    22     9    12 ar  
    23     9    37 1   
    24    10    11 ar  
    25    10    36 1   
    26    11    12 ar  
    27    11    38 1   
    28    12    13 1   
    29    13    14 2   
    30    13    24 1   
    31    14    15 1   
    32    14    39 1   
    33    15    16 ar  
    34    15    21 ar  
    35    16    17 1   
    36    16    18 ar  
    37    17    41 1   
    38    17    42 1   
    39    17    43 1   
    40    18    19 ar  
    41    18    44 1   
    42    19    20 ar  
    43    19    45 1   
    44    20    21 ar  
    45    20    46 1   
    46    21    22 1   
    47    22    23 2   
    48    22    24 1   
    49    24    40 1   
@<TRIPOS>SUBSTRUCTURE
     1 U1T         1 TEMP              0 ****  ****    0 ROOT
