@<TRIPOS>MOLECULE
U1T
   46    49     1     0     0
SMALL
No Charge or Current Charge


@<TRIPOS>ATOM
      1 C13         -6.6430     0.1370     0.0990 c5         1 U1T       0.156800
      2 C14         -7.0940    -0.5650    -1.2100 c5         1 U1T      -0.078900
      3 C15         -5.9330    -1.5650    -1.5170 c5         1 U1T      -0.078900
      4 C16         -4.9140    -1.3180    -0.3730 c5         1 U1T       0.156800
      5 N2          -5.1750     0.0980    -0.0400 n3         1 U1T      -0.717600
      6 C12         -4.4200     0.6320     1.1150 c3         1 U1T       0.213100
      7 C9          -2.9080     0.6070     0.9040 ca         1 U1T      -0.069300
      8 C10         -2.3040     1.5040     0.0040 ca         1 U1T      -0.098000
      9 C11         -0.9120     1.4840    -0.1940 ca         1 U1T      -0.094500
     10 C8          -2.1030    -0.3110     1.6040 ca         1 U1T      -0.098000
     11 C7          -0.7120    -0.3330     1.4060 ca         1 U1T      -0.094500
     12 C6          -0.1020     0.5630     0.5020 ca         1 U1T      -0.076800
     13 C5           1.3470     0.5510     0.2930 cc         1 U1T       0.120400
     14 C4           2.0060    -0.6490     0.1630 cd         1 U1T      -0.252200
     15 C3           3.4600    -0.6890    -0.0580 ca         1 U1T       0.019200
     16 C17          4.1670    -1.9100    -0.1900 ca         1 U1T      -0.088300
     17 C21          3.4570    -3.2590    -0.1090 c3         1 U1T      -0.044800
     18 C18          5.5590    -1.8840    -0.4020 ca         1 U1T      -0.078000
     19 C19          6.2450    -0.6620    -0.4810 ca         1 U1T      -0.132000
     20 C20          5.5470     0.5470    -0.3500 ca         1 U1T      -0.048000
     21 C2           4.1530     0.5420    -0.1380 ca         1 U1T      -0.166600
     22 C1           3.3970     1.8420     0.0020 c          1 U1T       0.572600
     23 O1           3.9380     2.9380    -0.0580 o          1 U1T      -0.559000
     24 N1           2.0450     1.7360     0.2050 ns         1 U1T      -0.383100
     25 H131        -7.0340     1.1610     0.1740 h1         1 U1T       0.036700
     26 H132        -6.9770    -0.4240     0.9840 h1         1 U1T       0.036700
     27 H141        -8.0610    -1.0670    -1.0880 hc         1 U1T       0.047450
     28 H142        -7.2070     0.1610    -2.0230 hc         1 U1T       0.047450
     29 H151        -6.2720    -2.6070    -1.5370 hc         1 U1T       0.047450
     30 H152        -5.4850    -1.3520    -2.4940 hc         1 U1T       0.047450
     31 H161        -5.1170    -1.9730     0.4870 h1         1 U1T       0.036700
     32 H162        -3.8790    -1.4940    -0.6990 h1         1 U1T       0.036700
     33 H121        -4.7220     1.6720     1.3030 h1         1 U1T       0.039700
     34 H122        -4.6660     0.0620     2.0210 h1         1 U1T       0.039700
     35 H10         -2.9170     2.2130    -0.5470 ha         1 U1T       0.123500
     36 H8          -2.5550    -1.0100     2.3050 ha         1 U1T       0.123500
     37 H11         -0.4670     2.1790    -0.9020 ha         1 U1T       0.119000
     38 H7          -0.1070    -1.0420     1.9670 ha         1 U1T       0.119000
     39 H4           1.4310    -1.5670     0.2060 ha         1 U1T       0.198000
     40 H1           1.5500     2.6120     0.3070 hn         1 U1T       0.327500
     41 H211         2.7030    -3.3560    -0.8990 hc         1 U1T       0.042033
     42 H212         4.1560    -4.0960    -0.2220 hc         1 U1T       0.042033
     43 H213         2.9550    -3.3830     0.8580 hc         1 U1T       0.042033
     44 H18          6.1150    -2.8130    -0.5050 ha         1 U1T       0.111000
     45 H19          7.3200    -0.6530    -0.6450 ha         1 U1T       0.118000
     46 H20          6.0910     1.4880    -0.4140 ha         1 U1T       0.136000
@<TRIPOS>BOND
     1     1     2 1   
     2     1     5 1   
     3     1    25 1   
     4     1    26 1   
     5     2     3 1   
     6     2    27 1   
     7     2    28 1   
     8     3     4 1   
     9     3    29 1   
    10     3    30 1   
    11     4     5 1   
    12     4    31 1   
    13     4    32 1   
    14     5     6 1   
    15     6     7 1   
    16     6    33 1   
    17     6    34 1   
    18     7     8 ar  
    19     7    10 ar  
    20     8     9 ar  
    21     8    35 1   
    22     9    12 ar  
    23     9    37 1   
    24    10    11 ar  
    25    10    36 1   
    26    11    12 ar  
    27    11    38 1   
    28    12    13 1   
    29    13    14 2   
    30    13    24 1   
    31    14    15 1   
    32    14    39 1   
    33    15    16 ar  
    34    15    21 ar  
    35    16    17 1   
    36    16    18 ar  
    37    17    41 1   
    38    17    42 1   
    39    17    43 1   
    40    18    19 ar  
    41    18    44 1   
    42    19    20 ar  
    43    19    45 1   
    44    20    21 ar  
    45    20    46 1   
    46    21    22 1   
    47    22    23 2   
    48    22    24 1   
    49    24    40 1   
@<TRIPOS>SUBSTRUCTURE
     1 U1T         1 TEMP              0 ****  ****    0 ROOT
