@<TRIPOS>MOLECULE
U1U
   46    49     1     0     0
SMALL
abcg2


@<TRIPOS>ATOM
      1 N1           8.0290    23.3270    19.4510 nu         1 U1U      -0.952900
      2 N3          10.5790    20.6060    17.6190 nb         1 U1U      -0.216000
      3 C4           6.7440    23.8060    21.4570 ca         1 U1U      -0.083000
      4 C5           6.8870    23.1180    20.2590 ca         1 U1U       0.257000
      5 C6           8.8220    22.3710    18.9000 ca         1 U1U       0.425900
      6 C7          10.4610    21.8990    17.3450 ca         1 U1U       0.169900
      7 C8           9.7770    20.2060    18.6130 ca         1 U1U       0.156500
      8 C10          8.2290    20.1910    20.2990 cc         1 U1U      -0.197200
      9 C13         11.8080    17.8490    18.5360 ca         1 U1U      -0.090000
     10 C15         11.8280    15.4870    17.9510 ca         1 U1U      -0.076300
     11 C17         10.4370    15.4320    18.1480 ca         1 U1U      -0.066300
     12 C20          5.8780    22.2470    19.8490 ca         1 U1U      -0.082000
     13 C21          4.7730    22.0450    20.6540 ca         1 U1U       0.094000
     14 C1           3.3380    23.1380    23.8440 c3         1 U1U       0.147900
     15 C2           4.6190    22.7240    21.8720 ca         1 U1U       0.141100
     16 C3           5.6180    23.6210    22.2510 ca         1 U1U      -0.179000
     17 N2           9.6470    22.7880    17.9210 nb         1 U1U      -0.294000
     18 C9           8.8570    21.0200    19.3110 ca         1 U1U      -0.237800
     19 C11          8.7600    18.9430    20.1590 cd         1 U1U      -0.164100
     20 N4           9.7040    18.9360    19.1380 na         1 U1U      -0.100200
     21 C12         10.4330    17.7890    18.7210 ca         1 U1U       0.009800
     22 C14         12.4860    16.7000    18.1470 ca         1 U1U      -0.099000
     23 C18          9.6810    14.1480    17.9470 c3         1 U1U      -0.046800
     24 C19          9.7570    16.5880    18.5230 ca         1 U1U      -0.118000
     25 CL1          3.5380    20.9250    20.1360 cl         1 U1U      -0.184000
     26 H1           8.2160    24.2690    19.1360 hn         1 U1U       0.513000
     27 H2           7.5210    24.4870    21.7780 ha         1 U1U       0.126000
     28 H3          11.0980    22.2850    16.5550 h5         1 U1U       0.047100
     29 H4           7.4910    20.4740    21.0280 ha         1 U1U       0.212000
     30 H5          12.3390    18.7760    18.6970 ha         1 U1U       0.136000
     31 H6           5.9590    21.7210    18.9090 ha         1 U1U       0.146000
     32 H7           2.3980    22.7740    24.2490 h1         1 U1U       0.045700
     33 H8           4.1540    22.9020    24.5310 h1         1 U1U       0.045700
     34 H9           3.2840    24.2190    23.6950 h1         1 U1U       0.045700
     35 H10          5.5320    24.1660    23.1790 ha         1 U1U       0.124000
     36 H11          8.5680    18.0420    20.7150 h4         1 U1U       0.221000
     37 H12         13.5590    16.7460    18.0020 ha         1 U1U       0.116000
     38 H13         12.2300    13.8610    16.5910 hc         1 U1U       0.043033
     39 H14         13.6570    14.4850    17.4310 hc         1 U1U       0.043033
     40 H15         12.4910    13.4610    18.2790 hc         1 U1U       0.043033
     41 H16         10.0560    13.3620    18.6080 hc         1 U1U       0.043700
     42 H17          8.6190    14.2840    18.1480 hc         1 U1U       0.043700
     43 H18          9.7920    13.7790    16.9240 hc         1 U1U       0.043700
     44 H19          8.6830    16.5550    18.6570 ha         1 U1U       0.120000
     45 O1           3.5090    22.4600    22.5970 os         1 U1U      -0.330100
     46 C16         12.5960    14.2610    17.5410 c3         1 U1U      -0.045800
@<TRIPOS>BOND
     1     1     4 1   
     2     1     5 1   
     3     1    26 1   
     4     2     6 ar  
     5     2     7 ar  
     6     3     4 ar  
     7     3    16 ar  
     8     3    27 1   
     9     4    12 ar  
    10     5    17 ar  
    11     5    18 ar  
    12     6    17 ar  
    13     6    28 1   
    14     7    18 ar  
    15     7    20 1   
    16     8    18 1   
    17     8    19 2   
    18     8    29 1   
    19     9    21 ar  
    20     9    22 ar  
    21     9    30 1   
    22    10    11 ar  
    23    10    22 ar  
    24    10    46 1   
    25    11    23 1   
    26    11    24 ar  
    27    12    13 ar  
    28    12    31 1   
    29    13    15 ar  
    30    13    25 1   
    31    14    32 1   
    32    14    33 1   
    33    14    34 1   
    34    14    45 1   
    35    15    16 ar  
    36    15    45 1   
    37    16    35 1   
    38    19    20 1   
    39    19    36 1   
    40    20    21 1   
    41    21    24 ar  
    42    22    37 1   
    43    23    41 1   
    44    23    42 1   
    45    23    43 1   
    46    24    44 1   
    47    38    46 1   
    48    39    46 1   
    49    40    46 1   
@<TRIPOS>SUBSTRUCTURE
     1 U1U         1 TEMP              0 ****  ****    0 ROOT
