@<TRIPOS>MOLECULE
U1U
   46    49     1     0     0
SMALL
No Charge or Current Charge


@<TRIPOS>ATOM
      1 N1           8.1150    23.0420    19.7210 nu         1 U1U      -0.952900
      2 N3           9.9640    20.4140    17.0900 nb         1 U1U      -0.216000
      3 C4           6.8370    23.9140    21.5850 ca         1 U1U      -0.083000
      4 C5           6.9620    23.0140    20.5120 ca         1 U1U       0.257000
      5 C6           8.7050    22.1210    18.8690 ca         1 U1U       0.425900
      6 C7           9.9490    21.7630    16.9750 ca         1 U1U       0.169900
      7 C8           9.3250    19.9080    18.1650 ca         1 U1U       0.156500
      8 C10          8.1900    19.9130    20.1470 cc         1 U1U      -0.197200
      9 C13         11.4450    17.7850    18.8160 ca         1 U1U      -0.090000
     10 C15         11.9950    15.4980    18.1550 ca         1 U1U      -0.076300
     11 C17         10.6450    15.2840    17.7850 ca         1 U1U      -0.066300
     12 C20          5.9040    22.1340    20.2270 ca         1 U1U      -0.082000
     13 C21          4.7460    22.1310    21.0230 ca         1 U1U       0.094000
     14 C1           3.2630    23.8620    24.0000 c3         1 U1U       0.147900
     15 C2           4.6250    23.0210    22.1120 ca         1 U1U       0.141100
     16 C3           5.6800    23.9200    22.3880 ca         1 U1U      -0.179000
     17 N2           9.3570    22.6430    17.8170 nb         1 U1U      -0.294000
     18 C9           8.6920    20.7300    19.0690 ca         1 U1U      -0.237800
     19 C11          8.5390    18.6030    19.8550 cd         1 U1U      -0.164100
     20 N4           9.1630    18.5950    18.5890 na         1 U1U      -0.100200
     21 C12         10.1040    17.5770    18.4480 ca         1 U1U       0.009800
     22 C14         12.3830    16.7510    18.6690 ca         1 U1U      -0.099000
     23 C18         10.1820    13.9430    17.2240 c3         1 U1U      -0.046800
     24 C19          9.7110    16.3290    17.9360 ca         1 U1U      -0.118000
     25 Cl1          3.4480    21.0010    20.6320 cl         1 U1U      -0.184000
     26 H1           8.5780    23.9510    19.6860 hn         1 U1U       0.513000
     27 H2           7.6440    24.6080    21.8060 ha         1 U1U       0.126000
     28 H3          10.4700    22.1830    16.1160 h5         1 U1U       0.047100
     29 H4           7.7240    20.2470    21.0720 ha         1 U1U       0.212000
     30 H5          11.7590    18.7460    19.2170 ha         1 U1U       0.136000
     31 H6           5.9710    21.4560    19.3830 ha         1 U1U       0.146000
     32 H7           2.2850    23.6670    24.4570 h1         1 U1U       0.045700
     33 H8           4.0330    23.7010    24.7640 h1         1 U1U       0.045700
     34 H9           3.2880    24.9140    23.6880 h1         1 U1U       0.045700
     35 H10          5.6240    24.6240    23.2120 ha         1 U1U       0.124000
     36 H11          8.4190    17.7020    20.4520 h4         1 U1U       0.221000
     37 H12         13.4170    16.9270    18.9590 ha         1 U1U       0.116000
     38 H13         13.1340    14.0760    16.9640 hc         1 U1U       0.043033
     39 H14         14.0310    14.7250    18.3390 hc         1 U1U       0.043033
     40 H15         12.7720    13.5160    18.6070 hc         1 U1U       0.043033
     41 H16         10.3550    13.1330    17.9430 hc         1 U1U       0.043700
     42 H17          9.1100    13.9470    16.9910 hc         1 U1U       0.043700
     43 H18         10.7160    13.6950    16.3000 hc         1 U1U       0.043700
     44 H19          8.6720    16.1730    17.6530 ha         1 U1U       0.120000
     45 O1           3.4690    22.9900    22.8740 os         1 U1U      -0.330100
     46 C16         13.0400    14.3940    18.0080 c3         1 U1U      -0.045800
@<TRIPOS>BOND
     1     1     4 1   
     2     1     5 1   
     3     1    26 1   
     4     2     6 ar  
     5     2     7 ar  
     6     3     4 ar  
     7     3    16 ar  
     8     3    27 1   
     9     4    12 ar  
    10     5    17 ar  
    11     5    18 ar  
    12     6    17 ar  
    13     6    28 1   
    14     7    18 ar  
    15     7    20 1   
    16     8    18 1   
    17     8    19 2   
    18     8    29 1   
    19     9    21 ar  
    20     9    22 ar  
    21     9    30 1   
    22    10    11 ar  
    23    10    22 ar  
    24    10    46 1   
    25    11    23 1   
    26    11    24 ar  
    27    12    13 ar  
    28    12    31 1   
    29    13    15 ar  
    30    13    25 1   
    31    14    32 1   
    32    14    33 1   
    33    14    34 1   
    34    14    45 1   
    35    15    16 ar  
    36    15    45 1   
    37    16    35 1   
    38    19    20 1   
    39    19    36 1   
    40    20    21 1   
    41    21    24 ar  
    42    22    37 1   
    43    23    41 1   
    44    23    42 1   
    45    23    43 1   
    46    24    44 1   
    47    38    46 1   
    48    39    46 1   
    49    40    46 1   
@<TRIPOS>SUBSTRUCTURE
     1 U1U         1 TEMP              0 ****  ****    0 ROOT
