@<TRIPOS>MOLECULE
U1V
   23    23     1     0     0
SMALL
abcg2


@<TRIPOS>ATOM
      1 C4           8.6590    -1.2170    -8.3640 ca         1 U1V      -0.159000
      2 C5           7.8040    -0.1320    -8.2670 ca         1 U1V      -0.068000
      3 C6           6.4290    -0.2940    -8.1300 ca         1 U1V      -0.092300
      4 C7           5.5660     0.9210    -8.0140 c3         1 U1V      -0.234100
      5 N            6.9410     1.9170    -5.9140 n8         1 U1V      -1.037100
      6 O            4.5710     2.6830    -6.3400 o          1 U1V      -0.542500
      7 C1           5.8840    -1.5850    -8.0990 ca         1 U1V      -0.015300
      8 C2           6.7410    -2.6760    -8.2020 ca         1 U1V      -0.156000
      9 C3           8.1020    -2.4780    -8.3250 ca         1 U1V       0.184000
     10 F            8.9020    -3.5500    -8.4190 f          1 U1V      -0.177000
     11 O1           5.0220     0.3510    -5.4830 o          1 U1V      -0.542500
     12 S            5.3960     1.4840    -6.3090 s6         1 U1V       1.171100
     13 H4           9.7270    -1.0830    -8.4700 ha         1 U1V       0.134000
     14 H5           8.2210     0.8660    -8.3000 ha         1 U1V       0.120000
     15 H6           5.9660     1.7680    -8.5720 h1         1 U1V       0.104200
     16 H7           4.5460     0.7590    -8.3640 h1         1 U1V       0.104200
     17 H8           7.0750     2.9090    -5.7880 hn         1 U1V       0.487500
     18 H9           7.3350     1.3790    -5.1550 hn         1 U1V       0.487500
     19 H2           3.9980    -1.3660    -7.0810 hc         1 U1V       0.053033
     20 H1           3.8690    -1.4000    -8.8380 hc         1 U1V       0.053033
     21 H            4.1810    -2.8840    -7.9530 hc         1 U1V       0.053033
     22 H3           6.3500    -3.6850    -8.1840 ha         1 U1V       0.133000
     23 C            4.4060    -1.8200    -7.9840 c3         1 U1V      -0.060800
@<TRIPOS>BOND
     1     1     2 ar  
     2     1     9 ar  
     3     1    13 1   
     4     2     3 ar  
     5     2    14 1   
     6     3     4 1   
     7     3     7 ar  
     8     4    12 1   
     9     4    15 1   
    10     4    16 1   
    11     5    12 1   
    12     5    17 1   
    13     5    18 1   
    14     6    12 2   
    15     7     8 ar  
    16     7    23 1   
    17     8     9 ar  
    18     8    22 1   
    19     9    10 1   
    20    11    12 2   
    21    19    23 1   
    22    20    23 1   
    23    21    23 1   
@<TRIPOS>SUBSTRUCTURE
     1 U1V         1 TEMP              0 ****  ****    0 ROOT
