@<TRIPOS>MOLECULE
U1V
   23    23     1     0     0
SMALL
No Charge or Current Charge


@<TRIPOS>ATOM
      1 C4           8.6870    -1.2770    -8.4150 ca         1 U1V      -0.159000
      2 C5           7.8500    -0.1560    -8.2860 ca         1 U1V      -0.068000
      3 C6           6.4580    -0.3150    -8.1280 ca         1 U1V      -0.092300
      4 C7           5.5880     0.9440    -7.9980 c3         1 U1V      -0.234100
      5 N            6.9320     2.0690    -5.9760 n8         1 U1V      -1.037100
      6 O            4.6220     2.8310    -6.3460 o          1 U1V      -0.542500
      7 C1           5.9000    -1.6200    -8.1110 ca         1 U1V      -0.015300
      8 C2           6.7520    -2.7360    -8.2420 ca         1 U1V      -0.156000
      9 C3           8.1340    -2.5630    -8.3910 ca         1 U1V       0.184000
     10 F            8.9380    -3.6410    -8.5160 f          1 U1V      -0.177000
     11 O1           5.1080     0.5380    -5.3700 o          1 U1V      -0.542500
     12 S            5.4080     1.6000    -6.3270 s6         1 U1V       1.171100
     13 H4           9.7600    -1.1490    -8.5330 ha         1 U1V       0.134000
     14 H5           8.2860     0.8410    -8.3060 ha         1 U1V       0.120000
     15 H6           6.0130     1.7630    -8.5870 h1         1 U1V       0.104200
     16 H7           4.5700     0.7640    -8.3550 h1         1 U1V       0.104200
     17 H8           6.7570     2.9130    -5.4360 hn         1 U1V       0.487500
     18 H9           7.1700     1.3980    -5.2490 hn         1 U1V       0.487500
     19 H2           4.0070    -1.3790    -7.0580 hc         1 U1V       0.053033
     20 H1           3.8530    -1.4440    -8.8240 hc         1 U1V       0.053033
     21 H            4.1560    -2.9190    -7.9040 hc         1 U1V       0.053033
     22 H3           6.3440    -3.7440    -8.2320 ha         1 U1V       0.133000
     23 C            4.3990    -1.8520    -7.9660 c3         1 U1V      -0.060800
@<TRIPOS>BOND
     1     1     2 ar  
     2     1     9 ar  
     3     1    13 1   
     4     2     3 ar  
     5     2    14 1   
     6     3     4 1   
     7     3     7 ar  
     8     4    12 1   
     9     4    15 1   
    10     4    16 1   
    11     5    12 1   
    12     5    17 1   
    13     5    18 1   
    14     6    12 2   
    15     7     8 ar  
    16     7    23 1   
    17     8     9 ar  
    18     8    22 1   
    19     9    10 1   
    20    11    12 2   
    21    19    23 1   
    22    20    23 1   
    23    21    23 1   
@<TRIPOS>SUBSTRUCTURE
     1 U1V         1 TEMP              0 ****  ****    0 ROOT
