@<TRIPOS>MOLECULE
U1W
   30    32     1     0     0
SMALL
abcg2


@<TRIPOS>ATOM
      1 C1          -7.6780     2.5160     7.3040 ca         1 U1W      -0.039200
      2 C2          -8.6410     1.7250     6.6890 ca         1 U1W      -0.015200
      3 C7          -6.6540     0.6280     6.6400 cc         1 U1W       0.610300
      4 C8          -5.2890     2.4350     7.8250 c6         1 U1W       0.098600
      5 C9          -9.2260     4.2240     7.7400 ca         1 U1W      -0.107000
      6 C10         -6.7320     4.4580     8.4540 c6         1 U1W      -0.019100
      7 C12        -10.2090     3.4520     7.1240 ca         1 U1W      -0.112000
      8 C14         -5.6850     3.4350     8.9150 c6         1 U1W      -0.091400
      9 C15         -8.5210    -0.3030     4.0580 c3         1 U1W      -0.117100
     10 N3          -6.4870     1.8360     7.2810 na         1 U1W      -0.280600
     11 C4          -7.9120     3.7610     7.8380 ca         1 U1W      -0.086300
     12 N5          -8.0010     0.5630     6.3120 na         1 U1W      -0.232600
     13 C6          -9.9410     2.1890     6.5860 ca         1 U1W      -0.115000
     14 N13         -5.8140    -0.2960     6.3650 n2         1 U1W      -0.894100
     15 H1          -4.6520     1.6570     8.2480 h1         1 U1W       0.047200
     16 H2          -4.7220     2.9330     7.0340 h1         1 U1W       0.047200
     17 H3          -9.4840     5.1950     8.1450 ha         1 U1W       0.113000
     18 H4          -6.2830     5.1420     7.7270 hc         1 U1W       0.053700
     19 H5          -7.0430     5.0720     9.3020 hc         1 U1W       0.053700
     20 H6          -9.6250    -0.6290     5.8860 h1         1 U1W       0.060700
     21 H7          -8.0730    -1.4380     5.8380 h1         1 U1W       0.060700
     22 H8         -11.2180     3.8390     7.0610 ha         1 U1W       0.113000
     23 H9          -6.0740     2.8840     9.7740 hc         1 U1W       0.054200
     24 H10         -4.7840     3.9500     9.2500 hc         1 U1W       0.054200
     25 H11         -8.9890    -1.1380     3.5370 hc         1 U1W       0.044033
     26 H12         -9.0410     0.6100     3.7660 hc         1 U1W       0.044033
     27 H13         -7.4870    -0.2320     3.7210 hc         1 U1W       0.044033
     28 H14        -10.7220     1.6100     6.1110 ha         1 U1W       0.121000
     29 H15         -4.8860    -0.0630     6.6940 hn         1 U1W       0.390400
     30 C11         -8.5890    -0.5200     5.5610 c3         1 U1W       0.101600
@<TRIPOS>BOND
     1     1     2 ar  
     2     1    10 1   
     3     1    11 ar  
     4     2    12 1   
     5     2    13 ar  
     6     3    10 1   
     7     3    12 1   
     8     3    14 2   
     9     4     8 1   
    10     4    10 1   
    11     4    15 1   
    12     4    16 1   
    13     5     7 ar  
    14     5    11 ar  
    15     5    17 1   
    16     6     8 1   
    17     6    11 1   
    18     6    18 1   
    19     6    19 1   
    20     7    13 ar  
    21     7    22 1   
    22     8    23 1   
    23     8    24 1   
    24     9    25 1   
    25     9    26 1   
    26     9    27 1   
    27     9    30 1   
    28    12    30 1   
    29    13    28 1   
    30    14    29 1   
    31    20    30 1   
    32    21    30 1   
@<TRIPOS>SUBSTRUCTURE
     1 U1W         1 TEMP              0 ****  ****    0 ROOT
