@<TRIPOS>MOLECULE
U1W
   30    32     1     0     0
SMALL
No Charge or Current Charge


@<TRIPOS>ATOM
      1 C1          -7.6240     2.4610     7.2940 ca         1 U1W      -0.039200
      2 C2          -8.5590     1.6900     6.6590 ca         1 U1W      -0.015200
      3 C7          -6.5960     0.5850     6.6680 cc         1 U1W       0.610300
      4 C8          -5.2220     2.4510     7.8920 c6         1 U1W       0.098600
      5 C9          -9.2080     4.2100     7.6820 ca         1 U1W      -0.107000
      6 C10         -6.7490     4.4740     8.5030 c6         1 U1W      -0.019100
      7 C12        -10.1940     3.4250     7.0250 ca         1 U1W      -0.112000
      8 C14         -5.6290     3.4950     8.9800 c6         1 U1W      -0.091400
      9 C15         -8.7310    -0.2810     4.0190 c3         1 U1W      -0.117100
     10 N3          -6.4230     1.8050     7.3160 na         1 U1W      -0.280600
     11 C4          -7.8930     3.7180     7.8230 ca         1 U1W      -0.086300
     12 N5          -7.9360     0.5140     6.2630 na         1 U1W      -0.232600
     13 C6          -9.8760     2.1470     6.5030 ca         1 U1W      -0.115000
     14 N13         -5.6810    -0.3060     6.4650 n2         1 U1W      -0.894100
     15 H1          -4.5630     1.6900     8.3320 h1         1 U1W       0.047200
     16 H2          -4.6730     2.9540     7.0840 h1         1 U1W       0.047200
     17 H3          -9.4690     5.1910     8.0750 ha         1 U1W       0.113000
     18 H4          -6.3270     5.1980     7.7930 hc         1 U1W       0.053700
     19 H5          -7.1280     5.0540     9.3550 hc         1 U1W       0.053700
     20 H6          -9.6310    -0.6900     5.9500 h1         1 U1W       0.060700
     21 H7          -8.0800    -1.5010     5.6850 h1         1 U1W       0.060700
     22 H8         -11.2050     3.8120     6.9210 ha         1 U1W       0.113000
     23 H9          -5.9900     2.9540     9.8660 hc         1 U1W       0.054200
     24 H10         -4.7460     4.0620     9.3050 hc         1 U1W       0.054200
     25 H11         -9.2460    -1.1070     3.5150 hc         1 U1W       0.044033
     26 H12         -9.2940     0.6410     3.8340 hc         1 U1W       0.044033
     27 H13         -7.7340    -0.1750     3.5760 hc         1 U1W       0.044033
     28 H14        -10.6300     1.5470     5.9980 ha         1 U1W       0.121000
     29 H15         -4.8020     0.0400     6.8730 hn         1 U1W       0.390400
     30 C11         -8.6250    -0.5610     5.5300 c3         1 U1W       0.101600
@<TRIPOS>BOND
     1     1     2 ar  
     2     1    10 1   
     3     1    11 ar  
     4     2    12 1   
     5     2    13 ar  
     6     3    10 1   
     7     3    12 1   
     8     3    14 2   
     9     4     8 1   
    10     4    10 1   
    11     4    15 1   
    12     4    16 1   
    13     5     7 ar  
    14     5    11 ar  
    15     5    17 1   
    16     6     8 1   
    17     6    11 1   
    18     6    18 1   
    19     6    19 1   
    20     7    13 ar  
    21     7    22 1   
    22     8    23 1   
    23     8    24 1   
    24     9    25 1   
    25     9    26 1   
    26     9    27 1   
    27     9    30 1   
    28    12    30 1   
    29    13    28 1   
    30    14    29 1   
    31    20    30 1   
    32    21    30 1   
@<TRIPOS>SUBSTRUCTURE
     1 U1W         1 TEMP              0 ****  ****    0 ROOT
