@<TRIPOS>MOLECULE
U1X
   28    29     1     0     0
SMALL
No Charge or Current Charge


@<TRIPOS>ATOM
      1 N1         -14.3420    -5.3510   -20.3470 n          1 U1X      -0.442800
      2 C4          -9.2860    -3.5620   -16.5510 ca         1 U1X      -0.140000
      3 C5          -9.7180    -2.6300   -17.5070 ca         1 U1X      -0.084000
      4 C6         -10.7950    -2.9420   -18.3540 ca         1 U1X      -0.150000
      5 C7         -15.2960    -6.4180   -20.7130 c5         1 U1X       0.110000
      6 C8         -15.8540    -5.8900   -22.0590 c5         1 U1X      -0.093900
      7 C10        -14.5220    -4.1120   -21.1390 c5         1 U1X       0.110000
      8 N          -12.5330    -4.4240   -19.1490 ns         1 U1X      -0.168000
      9 C          -13.3650    -5.5190   -19.3470 c          1 U1X       0.666100
     10 O          -13.2840    -6.5690   -18.7210 o          1 U1X      -0.633100
     11 C1         -11.4520    -4.1840   -18.2580 ca         1 U1X      -0.004000
     12 C2         -11.0100    -5.1150   -17.2910 ca         1 U1X      -0.150000
     13 C3          -9.9320    -4.8030   -16.4430 ca         1 U1X      -0.084000
     14 C9         -15.9000    -4.3640   -21.8030 c5         1 U1X      -0.093900
     15 H2          -9.2190    -1.6660   -17.5920 ha         1 U1X       0.111500
     16 H3         -11.1210    -2.2110   -19.0910 ha         1 U1X       0.125000
     17 H4         -16.0860    -6.5050   -19.9550 h1         1 U1X       0.050700
     18 H5         -14.8100    -7.3970   -20.8270 h1         1 U1X       0.050700
     19 H6         -16.8350    -6.3130   -22.3010 hc         1 U1X       0.055700
     20 H7         -15.1770    -6.1320   -22.8880 hc         1 U1X       0.055700
     21 H8         -13.7260    -4.0130   -21.8890 h1         1 U1X       0.050700
     22 H9         -14.5340    -3.2080   -20.5150 h1         1 U1X       0.050700
     23 H10        -12.7340    -3.6440   -19.7590 hn         1 U1X       0.145000
     24 H11        -11.4860    -6.0830   -17.1770 ha         1 U1X       0.125000
     25 H12         -9.5980    -5.5260   -15.7010 ha         1 U1X       0.111500
     26 H13        -16.0370    -3.7800   -22.7200 hc         1 U1X       0.055700
     27 H14        -16.7190    -4.1020   -21.1220 hc         1 U1X       0.055700
     28 H1          -8.4530    -3.3220   -15.8940 ha         1 U1X       0.113000
@<TRIPOS>BOND
     1     1     5 1   
     2     1     7 1   
     3     1     9 1   
     4     2     3 ar  
     5     2    13 ar  
     6     2    28 1   
     7     3     4 ar  
     8     3    15 1   
     9     4    11 ar  
    10     4    16 1   
    11     5     6 1   
    12     5    17 1   
    13     5    18 1   
    14     6    14 1   
    15     6    19 1   
    16     6    20 1   
    17     7    14 1   
    18     7    21 1   
    19     7    22 1   
    20     8     9 1   
    21     8    11 1   
    22     8    23 1   
    23     9    10 2   
    24    11    12 ar  
    25    12    13 ar  
    26    12    24 1   
    27    13    25 1   
    28    14    26 1   
    29    14    27 1   
@<TRIPOS>SUBSTRUCTURE
     1 U1X         1 TEMP              0 ****  ****    0 ROOT
