@<TRIPOS>MOLECULE
U1X
   28    29     1     0     0
SMALL
abcg2


@<TRIPOS>ATOM
      1 N1         -14.3940    -5.1990   -20.2330 n          1 U1X      -0.442800
      2 C4          -9.2870    -3.6980   -16.6100 ca         1 U1X      -0.140000
      3 C5          -9.9030    -2.6240   -17.2460 ca         1 U1X      -0.084000
      4 C6         -10.9990    -2.8300   -18.0700 ca         1 U1X      -0.150000
      5 C7         -15.3720    -6.2670   -20.4740 c5         1 U1X       0.110000
      6 C8         -15.8280    -6.0060   -21.9090 c5         1 U1X      -0.093900
      7 C10        -14.4500    -4.1480   -21.2590 c5         1 U1X       0.110000
      8 N          -12.5760    -4.2600   -19.1700 ns         1 U1X      -0.168000
      9 C          -13.4860    -5.2990   -19.2340 c          1 U1X       0.666100
     10 O          -13.4770    -6.2470   -18.4410 o          1 U1X      -0.633100
     11 C1         -11.5000    -4.1210   -18.2830 ca         1 U1X      -0.004000
     12 C2         -10.8770    -5.2020   -17.6500 ca         1 U1X      -0.150000
     13 C3          -9.7840    -4.9810   -16.8200 ca         1 U1X      -0.084000
     14 C9         -15.7210    -4.4840   -22.0410 c5         1 U1X      -0.093900
     15 H2          -9.5320    -1.6170   -17.0980 ha         1 U1X       0.111500
     16 H3         -11.4790    -1.9890   -18.5590 ha         1 U1X       0.125000
     17 H4         -16.2050    -6.1880   -19.7690 h1         1 U1X       0.050700
     18 H5         -14.9080    -7.2420   -20.3410 h1         1 U1X       0.050700
     19 H6         -16.8330    -6.3820   -22.0970 hc         1 U1X       0.055700
     20 H7         -15.1440    -6.4920   -22.6090 hc         1 U1X       0.055700
     21 H8         -13.5630    -4.1910   -21.8990 h1         1 U1X       0.050700
     22 H9         -14.5030    -3.1550   -20.8080 h1         1 U1X       0.050700
     23 H10        -12.7650    -3.4480   -19.7350 hn         1 U1X       0.145000
     24 H11        -11.2470    -6.2010   -17.8120 ha         1 U1X       0.125000
     25 H12         -9.3120    -5.8290   -16.3390 ha         1 U1X       0.111500
     26 H13        -15.6650    -4.1420   -23.0740 hc         1 U1X       0.055700
     27 H14        -16.5820    -4.0060   -21.5700 hc         1 U1X       0.055700
     28 H1          -8.4340    -3.5380   -15.9630 ha         1 U1X       0.113000
@<TRIPOS>BOND
     1     1     5 1   
     2     1     7 1   
     3     1     9 1   
     4     2     3 ar  
     5     2    13 ar  
     6     2    28 1   
     7     3     4 ar  
     8     3    15 1   
     9     4    11 ar  
    10     4    16 1   
    11     5     6 1   
    12     5    17 1   
    13     5    18 1   
    14     6    14 1   
    15     6    19 1   
    16     6    20 1   
    17     7    14 1   
    18     7    21 1   
    19     7    22 1   
    20     8     9 1   
    21     8    11 1   
    22     8    23 1   
    23     9    10 2   
    24    11    12 ar  
    25    12    13 ar  
    26    12    24 1   
    27    13    25 1   
    28    14    26 1   
    29    14    27 1   
@<TRIPOS>SUBSTRUCTURE
     1 U1X         1 TEMP              0 ****  ****    0 ROOT
