@<TRIPOS>MOLECULE
U1Y
   27    27     1     0     0
SMALL
bcc


@<TRIPOS>ATOM
      1 S6          25.1150    28.3030    35.2080 sh         1 U1Y      -0.358900
      2 C1          25.7590    32.1120    33.7490 c6         1 U1Y       0.350900
      3 O1          24.6590    32.4520    33.0000 os         1 U1Y      -0.375600
      4 C7          24.2540    31.4650    32.0700 c3         1 U1Y       0.123700
      5 O5          25.3700    31.1500    34.7010 os         1 U1Y      -0.428600
      6 C5          26.4490    30.6630    35.4680 c6         1 U1Y       0.139100
      7 C4          27.0110    31.8080    36.3170 c6         1 U1Y       0.082100
      8 O4          28.1520    31.4160    37.0420 oh         1 U1Y      -0.599800
      9 C3          27.4220    32.9510    35.3950 c6         1 U1Y       0.108100
     10 O3          27.7930    34.1030    36.1140 oh         1 U1Y      -0.600800
     11 C2          26.2780    33.3510    34.4680 c6         1 U1Y       0.131100
     12 O2          26.6960    34.2780    33.5010 oh         1 U1Y      -0.579800
     13 C6          25.9320    29.5130    36.3040 c3         1 U1Y       0.028700
     14 H71         23.4420    31.8890    31.4820 h1         1 U1Y       0.038700
     15 H72         25.0710    31.1970    31.3920 h1         1 U1Y       0.038700
     16 H73         23.8950    30.5560    32.5570 h1         1 U1Y       0.038700
     17 H5          27.2450    30.2840    34.8070 h1         1 U1Y       0.059700
     18 H4          26.2160    32.1650    36.9880 h1         1 U1Y       0.060700
     19 HO4         27.8760    31.0140    37.8710 ho         1 U1Y       0.412000
     20 H3          28.2600    32.5980    34.7730 h1         1 U1Y       0.052700
     21 HO3         28.6230    33.9240    36.5680 ho         1 U1Y       0.424000
     22 H2          25.4570    33.7550    35.0820 h1         1 U1Y       0.068700
     23 HO2         27.1320    35.0060    33.9570 ho         1 U1Y       0.422000
     24 H61         26.7640    29.0230    36.8070 h1         1 U1Y       0.067200
     25 H62         25.2300    29.8670    37.0600 h1         1 U1Y       0.067200
     26 HS6         25.3330    27.2240    35.9670 hs         1 U1Y       0.194800
     27 H1          26.5590    31.6880    33.1130 h2         1 U1Y       0.033700
@<TRIPOS>BOND
     1     1    13 1   
     2     1    26 1   
     3     2     3 1   
     4     2     5 1   
     5     2    11 1   
     6     2    27 1   
     7     3     4 1   
     8     4    14 1   
     9     4    15 1   
    10     4    16 1   
    11     5     6 1   
    12     6     7 1   
    13     6    13 1   
    14     6    17 1   
    15     7     8 1   
    16     7     9 1   
    17     7    18 1   
    18     8    19 1   
    19     9    10 1   
    20     9    11 1   
    21     9    20 1   
    22    10    21 1   
    23    11    12 1   
    24    11    22 1   
    25    12    23 1   
    26    13    24 1   
    27    13    25 1   
@<TRIPOS>SUBSTRUCTURE
     1 U1Y         1 TEMP              0 ****  ****    0 ROOT
