@<TRIPOS>MOLECULE
U1Y
   27    27     1     0     0
SMALL
No Charge or Current Charge


@<TRIPOS>ATOM
      1 S6          25.3420    27.9820    35.2960 sh         1 U1Y      -0.406800
      2 C1          25.7700    32.1680    33.6640 c6         1 U1Y       0.397300
      3 O1          24.6180    32.4810    32.8590 os         1 U1Y      -0.422000
      4 C7          24.1550    31.4380    31.9840 c3         1 U1Y       0.146900
      5 O5          25.4110    31.1270    34.5970 os         1 U1Y      -0.475000
      6 C5          26.5160    30.6490    35.4020 c6         1 U1Y       0.162300
      7 C4          27.0710    31.8200    36.2810 c6         1 U1Y       0.105300
      8 O4          28.2120    31.4170    37.0720 oh         1 U1Y      -0.722000
      9 C3          27.4700    33.0050    35.3520 c6         1 U1Y       0.131300
     10 O3          27.9360    34.1190    36.1350 oh         1 U1Y      -0.663000
     11 C2          26.2700    33.4260    34.4550 c6         1 U1Y       0.154300
     12 O2          26.6610    34.5280    33.6020 oh         1 U1Y      -0.702000
     13 C6          25.9900    29.4480    36.2390 c3         1 U1Y       0.076600
     14 H71         23.2950    31.7860    31.3990 h1         1 U1Y       0.038700
     15 H72         24.9450    31.1360    31.2840 h1         1 U1Y       0.038700
     16 H73         23.8420    30.5550    32.5560 h1         1 U1Y       0.038700
     17 H5          27.3100    30.2810    34.7340 h1         1 U1Y       0.059700
     18 H4          26.2580    32.1630    36.9410 h1         1 U1Y       0.060700
     19 HO4         27.8750    31.0620    37.9290 ho         1 U1Y       0.511000
     20 H3          28.2810    32.6560    34.6930 h1         1 U1Y       0.052700
     21 HO3         28.5080    33.7180    36.8300 ho         1 U1Y       0.463000
     22 H2          25.4490    33.7440    35.1150 h1         1 U1Y       0.068700
     23 HO2         27.2280    35.0980    34.1770 ho         1 U1Y       0.521000
     24 H61         26.8060    29.0870    36.8780 h1         1 U1Y       0.067200
     25 H62         25.1890    29.8090    36.8980 h1         1 U1Y       0.067200
     26 HS6         25.0040    27.2440    36.3820 hs         1 U1Y       0.194800
     27 H1          26.5790    31.8090    33.0090 h2         1 U1Y       0.033700
@<TRIPOS>BOND
     1     1    13 1   
     2     1    26 1   
     3     2     3 1   
     4     2     5 1   
     5     2    11 1   
     6     2    27 1   
     7     3     4 1   
     8     4    14 1   
     9     4    15 1   
    10     4    16 1   
    11     5     6 1   
    12     6     7 1   
    13     6    13 1   
    14     6    17 1   
    15     7     8 1   
    16     7     9 1   
    17     7    18 1   
    18     8    19 1   
    19     9    10 1   
    20     9    11 1   
    21     9    20 1   
    22    10    21 1   
    23    11    12 1   
    24    11    22 1   
    25    12    23 1   
    26    13    24 1   
    27    13    25 1   
@<TRIPOS>SUBSTRUCTURE
     1 U1Y         1 TEMP              0 ****  ****    0 ROOT
