@<TRIPOS>MOLECULE
U1Z
   46    49     1     0     0
SMALL
No Charge or Current Charge


@<TRIPOS>ATOM
      1 C01        -41.7980    36.7980   -23.1610 c3         1 U1Z       0.070900
      2 C03        -41.8320    39.3030   -22.6880 cc         1 U1Z      -0.164000
      3 C04        -41.1290    40.3430   -23.2290 cd         1 U1Z      -0.213300
      4 C05        -41.2380    41.8030   -22.8680 c3         1 U1Z      -0.004100
      5 C06        -40.5390    42.1520   -21.5380 c3         1 U1Z       0.071600
      6 C08        -38.1620    42.8700   -22.0900 cc         1 U1Z       0.399400
      7 C10        -37.0240    41.2050   -21.3340 cd         1 U1Z       0.369500
      8 C11        -35.8810    40.4120   -20.9550 cd         1 U1Z      -0.233500
      9 C12        -35.8750    39.2570   -20.2200 cc         1 U1Z      -0.162000
     10 C16        -34.5470    40.7430   -21.2550 cd         1 U1Z       0.273900
     11 C17        -38.3500    40.8910   -21.1180 cc         1 U1Z      -0.167000
     12 C18        -38.8710    39.6380   -20.5820 ca         1 U1Z       0.033000
     13 C19        -38.7000    38.4390   -21.2990 ca         1 U1Z      -0.101500
     14 C20        -39.2270    37.2330   -20.8060 ca         1 U1Z      -0.079000
     15 C21        -39.9460    37.2200   -19.5960 ca         1 U1Z      -0.032000
     16 C22        -40.4960    35.9900   -19.0960 cg         1 U1Z       0.321000
     17 C24        -40.1260    38.4200   -18.8810 ca         1 U1Z      -0.079000
     18 C25        -39.5910    39.6230   -19.3740 ca         1 U1Z      -0.101500
     19 C26        -40.2760    39.7850   -24.2070 cd         1 U1Z       0.254900
     20 N02        -41.3620    38.1860   -23.3690 na         1 U1Z       0.139800
     21 N07        -39.0750    41.9730   -21.5700 na         1 U1Z      -0.152500
     22 N09        -36.9170    42.4290   -21.9590 nd         1 U1Z      -0.669000
     23 N13        -34.5200    38.9440   -20.1400 na         1 U1Z       0.130800
     24 N15        -33.6950    39.8570   -20.7730 nc         1 U1Z      -0.533800
     25 N23        -40.9500    34.9890   -18.7000 n1         1 U1Z      -0.454000
     26 N27        -40.4030    38.4770   -24.3170 nc         1 U1Z      -0.526800
     27 H1         -40.9630    36.1130   -23.3510 h1         1 U1Z       0.057367
     28 H2         -42.1390    36.6720   -22.1270 h1         1 U1Z       0.057367
     29 H3         -42.6220    36.5690   -23.8470 h1         1 U1Z       0.057367
     30 H4         -42.5870    39.2590   -21.9140 h4         1 U1Z       0.151000
     31 H5         -40.8200    42.4250   -23.6680 hc         1 U1Z       0.056200
     32 H6         -42.2960    42.0800   -22.7860 hc         1 U1Z       0.056200
     33 H7         -40.7500    43.2000   -21.2910 h1         1 U1Z       0.060200
     34 H8         -40.9630    41.5350   -20.7370 h1         1 U1Z       0.060200
     35 H9         -38.4660    43.8100   -22.5350 h5         1 U1Z       0.054100
     36 H10        -36.6430    38.6620   -19.7450 h4         1 U1Z       0.153000
     37 H11        -33.3310    38.1230   -18.6070 h1         1 U1Z       0.055033
     38 H12        -34.7400    37.1300   -19.0850 h1         1 U1Z       0.055033
     39 H13        -33.3080    37.2200   -20.1530 h1         1 U1Z       0.055033
     40 H14        -34.1740    41.5960   -21.8090 h4         1 U1Z       0.049100
     41 H15        -38.1590    38.4450   -22.2420 ha         1 U1Z       0.132000
     42 H16        -39.0820    36.3140   -21.3700 ha         1 U1Z       0.126000
     43 H17        -40.6810    38.4230   -17.9440 ha         1 U1Z       0.126000
     44 H18        -39.7340    40.5460   -18.8180 ha         1 U1Z       0.132000
     45 H19        -39.5690    40.3030   -24.8430 h4         1 U1Z       0.042100
     46 C14        -33.9390    37.7820   -19.4530 c3         1 U1Z       0.074900
@<TRIPOS>BOND
     1     1    20 1   
     2     1    27 1   
     3     1    28 1   
     4     1    29 1   
     5     2     3 2   
     6     2    20 1   
     7     2    30 1   
     8     3     4 1   
     9     3    19 1   
    10     4     5 1   
    11     4    31 1   
    12     4    32 1   
    13     5    21 1   
    14     5    33 1   
    15     5    34 1   
    16     6    21 1   
    17     6    22 2   
    18     6    35 1   
    19     7     8 1   
    20     7    11 2   
    21     7    22 1   
    22     8     9 2   
    23     8    10 1   
    24     9    23 1   
    25     9    36 1   
    26    10    24 2   
    27    10    40 1   
    28    11    12 1   
    29    11    21 1   
    30    12    13 ar  
    31    12    18 ar  
    32    13    14 ar  
    33    13    41 1   
    34    14    15 ar  
    35    14    42 1   
    36    15    16 1   
    37    15    17 ar  
    38    16    25 3   
    39    17    18 ar  
    40    17    43 1   
    41    18    44 1   
    42    19    26 2   
    43    19    45 1   
    44    20    26 1   
    45    23    24 1   
    46    23    46 1   
    47    37    46 1   
    48    38    46 1   
    49    39    46 1   
@<TRIPOS>SUBSTRUCTURE
     1 U1Z         1 TEMP              0 ****  ****    0 ROOT
