@<TRIPOS>MOLECULE
U1Z
   46    49     1     0     0
SMALL
abcg2


@<TRIPOS>ATOM
      1 C01        -41.7620    36.8320   -23.0460 c3         1 U1Z       0.070900
      2 C03        -41.7240    39.2970   -22.6650 cc         1 U1Z      -0.164000
      3 C04        -41.0070    40.3480   -23.1980 cd         1 U1Z      -0.213300
      4 C05        -41.1250    41.8000   -22.8790 c3         1 U1Z      -0.004100
      5 C06        -40.5540    42.1880   -21.5160 c3         1 U1Z       0.071600
      6 C08        -38.2110    42.9040   -21.8300 cc         1 U1Z       0.399400
      7 C10        -37.0900    41.1820   -21.2730 cd         1 U1Z       0.369500
      8 C11        -35.9010    40.3930   -21.0040 cd         1 U1Z      -0.233500
      9 C12        -35.7240    39.3160   -20.1550 cc         1 U1Z      -0.162000
     10 C16        -34.6170    40.5960   -21.5470 cd         1 U1Z       0.273900
     11 C17        -38.4170    40.8630   -21.0740 cc         1 U1Z      -0.167000
     12 C18        -39.0190    39.6200   -20.5940 ca         1 U1Z       0.033000
     13 C19        -38.6900    38.4170   -21.2200 ca         1 U1Z      -0.101500
     14 C20        -39.2170    37.2210   -20.7750 ca         1 U1Z      -0.079000
     15 C21        -40.1040    37.2170   -19.6990 ca         1 U1Z      -0.032000
     16 C22        -40.6650    35.9850   -19.2490 cg         1 U1Z       0.321000
     17 C24        -40.4380    38.4100   -19.0590 ca         1 U1Z      -0.079000
     18 C25        -39.8870    39.5980   -19.5000 ca         1 U1Z      -0.101500
     19 C26        -40.1290    39.7210   -24.0970 cd         1 U1Z       0.254900
     20 N02        -41.2660    38.1720   -23.2380 na         1 U1Z       0.139800
     21 N07        -39.1180    41.9950   -21.4220 na         1 U1Z      -0.152500
     22 N09        -36.9860    42.4580   -21.7480 nd         1 U1Z      -0.669000
     23 N13        -34.4330    38.9560   -20.2390 na         1 U1Z       0.130800
     24 N15        -33.7460    39.7220   -21.0800 nc         1 U1Z      -0.533800
     25 N23        -41.1200    34.9880   -18.8920 n1         1 U1Z      -0.454000
     26 N27        -40.2980    38.4090   -24.1160 nc         1 U1Z      -0.526800
     27 H1         -40.9300    36.1410   -22.9300 h1         1 U1Z       0.057367
     28 H2         -42.3690    36.8030   -22.1450 h1         1 U1Z       0.057367
     29 H3         -42.3710    36.5170   -23.8920 h1         1 U1Z       0.057367
     30 H4         -42.5100    39.2740   -21.9260 h4         1 U1Z       0.151000
     31 H5         -40.6320    42.3910   -23.6540 hc         1 U1Z       0.056200
     32 H6         -42.1740    42.1080   -22.8810 hc         1 U1Z       0.056200
     33 H7         -40.7490    43.2430   -21.3230 h1         1 U1Z       0.060200
     34 H8         -41.0450    41.6250   -20.7260 h1         1 U1Z       0.060200
     35 H9         -38.5060    43.8840   -22.1760 h5         1 U1Z       0.054100
     36 H10        -36.4080    38.8000   -19.5010 h4         1 U1Z       0.153000
     37 H11        -32.9200    38.2320   -18.9990 h1         1 U1Z       0.055033
     38 H12        -34.4850    37.4210   -18.8540 h1         1 U1Z       0.055033
     39 H13        -33.4580    37.1070   -20.2600 h1         1 U1Z       0.055033
     40 H14        -34.3120    41.3470   -22.2600 h4         1 U1Z       0.049100
     41 H15        -38.0230    38.4200   -22.0700 ha         1 U1Z       0.132000
     42 H16        -38.9530    36.2950   -21.2670 ha         1 U1Z       0.126000
     43 H17        -41.1140    38.4050   -18.2150 ha         1 U1Z       0.126000
     44 H18        -40.1240    40.5140   -18.9750 ha         1 U1Z       0.132000
     45 H19        -39.3830    40.1850   -24.7270 h4         1 U1Z       0.042100
     46 C14        -33.7830    37.8670   -19.5520 c3         1 U1Z       0.074900
@<TRIPOS>BOND
     1     1    20 1   
     2     1    27 1   
     3     1    28 1   
     4     1    29 1   
     5     2     3 2   
     6     2    20 1   
     7     2    30 1   
     8     3     4 1   
     9     3    19 1   
    10     4     5 1   
    11     4    31 1   
    12     4    32 1   
    13     5    21 1   
    14     5    33 1   
    15     5    34 1   
    16     6    21 1   
    17     6    22 2   
    18     6    35 1   
    19     7     8 1   
    20     7    11 2   
    21     7    22 1   
    22     8     9 2   
    23     8    10 1   
    24     9    23 1   
    25     9    36 1   
    26    10    24 2   
    27    10    40 1   
    28    11    12 1   
    29    11    21 1   
    30    12    13 ar  
    31    12    18 ar  
    32    13    14 ar  
    33    13    41 1   
    34    14    15 ar  
    35    14    42 1   
    36    15    16 1   
    37    15    17 ar  
    38    16    25 3   
    39    17    18 ar  
    40    17    43 1   
    41    18    44 1   
    42    19    26 2   
    43    19    45 1   
    44    20    26 1   
    45    23    24 1   
    46    23    46 1   
    47    37    46 1   
    48    38    46 1   
    49    39    46 1   
@<TRIPOS>SUBSTRUCTURE
     1 U1Z         1 TEMP              0 ****  ****    0 ROOT
