@<TRIPOS>MOLECULE
U20
  106   108     1     0     0
SMALL
No Charge or Current Charge


@<TRIPOS>ATOM
      1 C4          10.3620    -5.6950    21.7280 c6         1 U20       0.127300
      2 C5          11.7620    -5.8830    22.3880 c6         1 U20       0.110300
      3 C6          11.8530    -7.1380    23.3200 c3         1 U20       0.147600
      4 N2          11.6790    -3.4400    18.8390 ns         1 U20      -0.475900
      5 C3          10.4040    -4.4590    20.7590 c6         1 U20       0.153300
      6 CCB         18.1650     4.3430    20.7100 c3         1 U20      -0.086100
      7 CCA         16.8830     3.6030    21.1340 c3         1 U20      -0.078400
      8 CBZ         15.8260     3.5310    20.0120 c3         1 U20      -0.072400
      9 CBY         14.5510     2.7740    20.4390 c3         1 U20      -0.078400
     10 CBX         13.4820     2.7060    19.3270 c3         1 U20      -0.070400
     11 CBW         12.2150     1.9430    19.7670 c3         1 U20      -0.079400
     12 CBV         11.1390     1.8540    18.6640 c3         1 U20      -0.071400
     13 CBU          9.8930     1.0660    19.1200 c3         1 U20      -0.080400
     14 CBS          8.8230     0.9110    18.0110 c3         1 U20      -0.071400
     15 CBL          7.8230    -1.3980    18.6860 c3         1 U20      -0.073400
     16 CBJ          6.5990    -2.1560    19.2670 c3         1 U20       0.182300
     17 OCC          5.5220    -2.1170    18.3260 oh         1 U20      -0.672000
     18 CBI          6.8870    -3.6330    19.6050 c3         1 U20      -0.183400
     19 OAY          7.9290    -3.4930    21.7940 o          1 U20      -0.473000
     20 O3           9.1600    -4.2720    20.0300 os         1 U20      -0.456100
     21 C2          11.5700    -4.6190    19.7340 c6         1 U20       0.070700
     22 CAP         11.1380    -3.3300    17.5800 c          1 U20       0.603100
     23 CAQ         11.3830    -1.9910    16.8970 c3         1 U20      -0.179100
     24 OAR         10.5220    -4.2390    17.0420 o          1 U20      -0.643100
     25 O4           9.3440    -5.5820    22.7420 oh         1 U20      -0.706000
     26 O6          11.6890    -8.3980    22.6280 oh         1 U20      -0.716000
     27 O5          12.7790    -6.0140    21.3630 os         1 U20      -0.449000
     28 C1          12.9130    -4.8830    20.4800 c6         1 U20       0.441300
     29 O1          13.3130    -3.7270    21.2170 os         1 U20      -0.617400
     30 PAO         14.8800    -3.5580    21.5290 p5         1 U20       1.486800
     31 OAT         15.2480    -2.1380    21.7890 o          1 U20      -0.851500
     32 OAS         15.6980    -4.0840    20.3980 o          1 U20      -0.851500
     33 OAN         15.0210    -4.4990    22.7820 os         1 U20      -0.702800
     34 PAU         14.5890    -3.8840    24.1660 p5         1 U20       1.455800
     35 OAW         14.2710    -5.0120    25.0880 o          1 U20      -0.850000
     36 OAV         13.4670    -2.9060    24.1360 o          1 U20      -0.850000
     37 O9          15.9870    -3.1980    24.5780 os         1 U20      -0.596400
     38 C8          16.3320    -3.0580    25.9660 c3         1 U20       0.236600
     39 C7          16.5410    -1.5570    26.3220 c5         1 U20       0.111300
     40 O8          17.7040    -1.0510    25.6110 os         1 U20      -0.458000
     41 C9          15.3410    -0.5950    25.9770 c5         1 U20       0.145300
     42 O7          15.1800     0.4550    26.9450 oh         1 U20      -0.711000
     43 C10         15.8120     0.0270    24.6300 c5         1 U20       0.086300
     44 O2          15.1380     1.2800    24.3650 oh         1 U20      -0.706000
     45 C11         17.3340     0.1750    24.9640 c5         1 U20       0.286700
     46 NAX         18.1290     0.3580    23.7200 n          1 U20      -0.304000
     47 CBP         18.0810    -0.6000    22.7010 cc         1 U20       0.054600
     48 CBO         18.8160    -0.3910    21.5560 cd         1 U20      -0.403200
     49 CBN         19.6590     0.7890    21.3800 c          1 U20       0.592200
     50 OBQ         20.3290     1.0070    20.3870 o          1 U20      -0.577000
     51 NBM         19.6370     1.6310    22.4430 ns         1 U20      -0.477500
     52 CBK         18.9310     1.5100    23.6000 c          1 U20       0.619000
     53 OBT         19.0120     2.3720    24.4600 o          1 U20      -0.601000
     54 H4          10.1550    -6.5830    21.1140 h1         1 U20       0.030700
     55 H5          11.9850    -5.0000    23.0050 h1         1 U20       0.113700
     56 H61         12.8340    -7.1070    23.8130 h1         1 U20       0.076700
     57 H62         11.1020    -7.0330    24.1160 h1         1 U20       0.076700
     58 HN2         12.1820    -2.6300    19.1830 hn         1 U20       0.343500
     59 H3          10.6070    -3.5520    21.3500 h1         1 U20       0.122700
     60 HCB1        17.9360     5.3690    20.3980 hc         1 U20       0.026367
     61 HCB2        18.8740     4.3910    21.5450 hc         1 U20       0.026367
     62 HCB3        18.6530     3.8270    19.8750 hc         1 U20       0.026367
     63 HCA1        16.4530     4.1070    22.0080 hc         1 U20       0.042700
     64 HCA2        17.1430     2.5850    21.4480 hc         1 U20       0.042700
     65 HBZ1        16.2630     3.0360    19.1360 hc         1 U20       0.030200
     66 HBZ2        15.5560     4.5490    19.7050 hc         1 U20       0.030200
     67 HBY1        14.1200     3.2630    21.3220 hc         1 U20       0.045200
     68 HBY2        14.8230     1.7530    20.7380 hc         1 U20       0.045200
     69 HBX1        13.9100     2.2160    18.4440 hc         1 U20       0.029200
     70 HBX2        13.2050     3.7250    19.0280 hc         1 U20       0.029200
     71 HBW1        11.7860     2.4350    20.6490 hc         1 U20       0.047200
     72 HBW2        12.4980     0.9280    20.0750 hc         1 U20       0.047200
     73 HBV1        11.5690     1.3710    17.7780 hc         1 U20       0.027700
     74 HBV2        10.8390     2.8660    18.3650 hc         1 U20       0.027700
     75 HBU1         9.4430     1.5730    19.9830 hc         1 U20       0.048700
     76 HBU2        10.2170     0.0790    19.4680 hc         1 U20       0.048700
     77 HBS1         9.2680     0.4290    17.1310 hc         1 U20       0.029200
     78 HBS2         8.5050     1.9100    17.6920 hc         1 U20       0.029200
     79 HBR1         7.1640     0.5650    19.3640 hc         1 U20       0.037700
     80 HBR2         6.8010     0.2290    17.6770 hc         1 U20       0.037700
     81 HBJ          6.3000    -1.6480    20.1960 h1         1 U20       0.046700
     82 HOCC         4.7300    -2.4800    18.7780 ho         1 U20       0.434000
     83 HBI1         5.9890    -4.0760    20.0480 hc         1 U20       0.072700
     84 HBI2         7.1500    -4.1620    18.6810 hc         1 U20       0.072700
     85 H2          11.3630    -5.5040    19.1160 h1         1 U20       0.078700
     86 HAQ1        11.1090    -1.1810    17.5800 hc         1 U20       0.051367
     87 HAQ2        12.4630    -1.8450    16.7870 hc         1 U20       0.051367
     88 HAQ3        10.8710    -1.9070    15.9320 hc         1 U20       0.051367
     89 HO4          8.7710    -4.8120    22.4960 ho         1 U20       0.484000
     90 HO6         10.7800    -8.4000    22.2530 ho         1 U20       0.463000
     91 H1          13.6630    -5.1200    19.7090 h2         1 U20       0.095700
     92 H5'1        15.5480    -3.4550    26.6240 h1         1 U20       0.024700
     93 H5'2        17.2560    -3.6090    26.1840 h1         1 U20       0.024700
     94 H7          16.7590    -1.5100    27.3970 h1         1 U20       0.033700
     95 H8          14.4020    -1.1550    25.8440 h1         1 U20       0.153700
     96 HO3         14.9640     1.2420    26.3860 ho         1 U20       0.483000
     97 H9          15.6400    -0.6960    23.8210 h1         1 U20       0.146700
     98 HO2         15.3360     1.5310    23.4320 ho         1 U20       0.510000
     99 H10         17.5050     1.0210    25.6410 h2         1 U20       0.068700
    100 HBP         17.4650    -1.4720    22.9200 h4         1 U20       0.283000
    101 HBO         18.8230    -1.0930    20.7310 ha         1 U20       0.245000
    102 HNBM        20.2100     2.4550    22.3640 hn         1 U20       0.314500
    103 CAM          8.0300    -3.7630    20.6070 c          1 U20       0.603100
    104 HBL1         8.1310    -1.8680    17.7440 hc         1 U20       0.057700
    105 CBR          7.5710     0.1140    18.4500 c3         1 U20      -0.066400
    106 HBL2         8.6620    -1.5090    19.3800 hc         1 U20       0.057700
@<TRIPOS>BOND
     1     1     2 1   
     2     1     5 1   
     3     1    25 1   
     4     1    54 1   
     5     2     3 1   
     6     2    27 1   
     7     2    55 1   
     8     3    26 1   
     9     3    56 1   
    10     3    57 1   
    11     4    21 1   
    12     4    22 1   
    13     4    58 1   
    14     5    20 1   
    15     5    21 1   
    16     5    59 1   
    17     6     7 1   
    18     6    60 1   
    19     6    61 1   
    20     6    62 1   
    21     7     8 1   
    22     7    63 1   
    23     7    64 1   
    24     8     9 1   
    25     8    65 1   
    26     8    66 1   
    27     9    10 1   
    28     9    67 1   
    29     9    68 1   
    30    10    11 1   
    31    10    69 1   
    32    10    70 1   
    33    11    12 1   
    34    11    71 1   
    35    11    72 1   
    36    12    13 1   
    37    12    73 1   
    38    12    74 1   
    39    13    14 1   
    40    13    75 1   
    41    13    76 1   
    42    14    77 1   
    43    14    78 1   
    44    14   105 1   
    45    15    16 1   
    46    15   104 1   
    47    15   105 1   
    48    15   106 1   
    49    16    17 1   
    50    16    18 1   
    51    16    81 1   
    52    17    82 1   
    53    18    83 1   
    54    18    84 1   
    55    18   103 1   
    56    19   103 2   
    57    20   103 1   
    58    21    28 1   
    59    21    85 1   
    60    22    23 1   
    61    22    24 2   
    62    23    86 1   
    63    23    87 1   
    64    23    88 1   
    65    25    89 1   
    66    26    90 1   
    67    27    28 1   
    68    28    29 1   
    69    28    91 1   
    70    29    30 1   
    71    30    31 1   
    72    30    32 1   
    73    30    33 1   
    74    33    34 1   
    75    34    35 1   
    76    34    36 1   
    77    34    37 1   
    78    37    38 1   
    79    38    39 1   
    80    38    92 1   
    81    38    93 1   
    82    39    40 1   
    83    39    41 1   
    84    39    94 1   
    85    40    45 1   
    86    41    42 1   
    87    41    43 1   
    88    41    95 1   
    89    42    96 1   
    90    43    44 1   
    91    43    45 1   
    92    43    97 1   
    93    44    98 1   
    94    45    46 1   
    95    45    99 1   
    96    46    47 1   
    97    46    52 1   
    98    47    48 2   
    99    47   100 1   
   100    48    49 1   
   101    48   101 1   
   102    49    50 2   
   103    49    51 1   
   104    51    52 1   
   105    51   102 1   
   106    52    53 2   
   107    79   105 1   
   108    80   105 1   
@<TRIPOS>SUBSTRUCTURE
     1 U20         1 TEMP              0 ****  ****    0 ROOT
