@<TRIPOS>MOLECULE
U20
  106   108     1     0     0
SMALL
abcg2


@<TRIPOS>ATOM
      1 C4          10.3190    -5.7670    22.0040 c6         1 U20       0.127300
      2 C5          11.5570    -6.2110    22.7910 c6         1 U20       0.110300
      3 C6          11.2850    -7.2860    23.8260 c3         1 U20       0.147600
      4 N2          12.3390    -4.2400    19.1970 ns         1 U20      -0.475900
      5 C3          10.7490    -4.7110    21.0010 c6         1 U20       0.153300
      6 CCB         16.0100     8.1390    19.5670 c3         1 U20      -0.086100
      7 CCA         15.1890     6.9510    20.0520 c3         1 U20      -0.078400
      8 CBZ         14.1690     6.4740    19.0260 c3         1 U20      -0.072400
      9 CBY         13.3390     5.2900    19.5090 c3         1 U20      -0.078400
     10 CBX         12.3160     4.8110    18.4880 c3         1 U20      -0.070400
     11 CBW         11.4780     3.6380    18.9830 c3         1 U20      -0.079400
     12 CBV         10.4450     3.1600    17.9710 c3         1 U20      -0.071400
     13 CBU          9.5850     2.0130    18.4880 c3         1 U20      -0.080400
     14 CBS          8.5360     1.5500    17.4830 c3         1 U20      -0.071400
     15 CBL          8.1780    -0.8470    18.3140 c3         1 U20      -0.073400
     16 CBJ          7.2530    -1.7880    19.0710 c3         1 U20       0.182300
     17 OCC          6.0620    -1.9200    18.3190 oh         1 U20      -0.672000
     18 CBI          7.8690    -3.1720    19.2860 c3         1 U20      -0.183400
     19 OAY          9.3350    -2.3490    21.0170 o          1 U20      -0.473000
     20 O3           9.6490    -4.3950    20.1520 os         1 U20      -0.456100
     21 C2          11.8640    -5.2480    20.1050 c6         1 U20       0.070700
     22 CAP         12.0800    -4.2230    17.8730 c          1 U20       0.603100
     23 CAQ         12.5950    -3.0070    17.1430 c3         1 U20      -0.179100
     24 OAR         11.4640    -5.1080    17.2980 o          1 U20      -0.643100
     25 O4           9.3450    -5.2020    22.8460 oh         1 U20      -0.706000
     26 O6          10.7710    -8.4830    23.2930 oh         1 U20      -0.716000
     27 O5          12.5300    -6.7190    21.8900 os         1 U20      -0.449000
     28 C1          13.0110    -5.8100    20.9520 c6         1 U20       0.441300
     29 O1          13.6750    -4.7340    21.5410 os         1 U20      -0.617400
     30 PAO         15.1960    -4.9060    22.1790 p5         1 U20       1.486800
     31 OAT         15.7560    -3.5220    22.2180 o          1 U20      -0.851500
     32 OAS         15.8960    -6.0300    21.4890 o          1 U20      -0.851500
     33 OAN         14.8620    -5.4490    23.6930 os         1 U20      -0.702800
     34 PAU         14.3320    -4.6450    25.0190 p5         1 U20       1.455800
     35 OAW         13.8460    -5.6740    25.9910 o          1 U20      -0.850000
     36 OAV         13.4610    -3.4860    24.6430 o          1 U20      -0.850000
     37 O9          15.8100    -4.0960    25.5100 os         1 U20      -0.596400
     38 C8          15.9490    -3.5660    26.8090 c3         1 U20       0.236600
     39 C7          16.5510    -2.1780    26.7700 c5         1 U20       0.111300
     40 O8          17.8570    -2.2430    26.1930 os         1 U20      -0.458000
     41 C9          15.7480    -1.1400    25.9600 c5         1 U20       0.145300
     42 O7          15.5620     0.0740    26.6390 oh         1 U20      -0.711000
     43 C10         16.5730    -1.0160    24.6760 c5         1 U20       0.086300
     44 O2          16.4150     0.2270    24.0620 oh         1 U20      -0.706000
     45 C11         17.9910    -1.2680    25.1990 c5         1 U20       0.286700
     46 NAX         18.9280    -1.7490    24.2000 n          1 U20      -0.304000
     47 CBP         18.6600    -2.9160    23.5370 cc         1 U20       0.054600
     48 CBO         19.4740    -3.4360    22.6070 cd         1 U20      -0.403200
     49 CBN         20.7070    -2.7640    22.2810 c          1 U20       0.592200
     50 OBQ         21.5300    -3.1280    21.4620 o          1 U20      -0.577000
     51 NBM         20.9070    -1.5990    23.0100 ns         1 U20      -0.477500
     52 CBK         20.0960    -1.0460    23.9660 c          1 U20       0.619000
     53 OBT         20.3900    -0.0220    24.5440 o          1 U20      -0.601000
     54 H4           9.9210    -6.6270    21.4460 h1         1 U20       0.030700
     55 H5          11.9440    -5.3420    23.3390 h1         1 U20       0.113700
     56 H61         12.2300    -7.5270    24.3180 h1         1 U20       0.076700
     57 H62         10.6330    -6.8640    24.6000 h1         1 U20       0.076700
     58 HN2         12.8470    -3.4670    19.5980 hn         1 U20       0.343500
     59 H3          11.0880    -3.8170    21.5320 h1         1 U20       0.122700
     60 HCB1        15.3710     8.9960    19.3480 hc         1 U20       0.026367
     61 HCB2        16.7400     8.4540    20.3130 hc         1 U20       0.026367
     62 HCB3        16.5550     7.8940    18.6530 hc         1 U20       0.026367
     63 HCA1        14.6720     7.2190    20.9790 hc         1 U20       0.042700
     64 HCA2        15.8580     6.1230    20.3080 hc         1 U20       0.042700
     65 HBZ1        14.6860     6.2020    18.1000 hc         1 U20       0.030200
     66 HBZ2        13.5020     7.3030    18.7680 hc         1 U20       0.030200
     67 HBY1        12.8240     5.5650    20.4360 hc         1 U20       0.045200
     68 HBY2        14.0070     4.4610    19.7690 hc         1 U20       0.045200
     69 HBX1        12.8300     4.5250    17.5630 hc         1 U20       0.029200
     70 HBX2        11.6540     5.6420    18.2220 hc         1 U20       0.029200
     71 HBW1        10.9690     3.9260    19.9100 hc         1 U20       0.047200
     72 HBW2        12.1380     2.8050    19.2480 hc         1 U20       0.047200
     73 HBV1        10.9530     2.8520    17.0500 hc         1 U20       0.027700
     74 HBV2         9.7980     3.9990    17.6920 hc         1 U20       0.027700
     75 HBU1         9.0820     2.3290    19.4080 hc         1 U20       0.048700
     76 HBU2        10.2350     1.1780    18.7690 hc         1 U20       0.048700
     77 HBS1         9.0320     1.1530    16.5900 hc         1 U20       0.029200
     78 HBS2         7.9680     2.4230    17.1460 hc         1 U20       0.029200
     79 HBR1         7.1110     0.9100    18.9560 hc         1 U20       0.037700
     80 HBR2         6.7310     0.3990    17.3280 hc         1 U20       0.037700
     81 HBJ          7.0360    -1.3400    20.0510 h1         1 U20       0.046700
     82 HOCC         5.4140    -2.3930    18.8520 ho         1 U20       0.434000
     83 HBI1         7.1040    -3.8500    19.6840 hc         1 U20       0.072700
     84 HBI2         8.1760    -3.6000    18.3280 hc         1 U20       0.072700
     85 H2          11.4670    -6.0740    19.5120 h1         1 U20       0.078700
     86 HAQ1        11.7570    -2.3470    16.9140 hc         1 U20       0.051367
     87 HAQ2        13.3270    -2.4360    17.7120 hc         1 U20       0.051367
     88 HAQ3        13.0420    -3.3070    16.1970 hc         1 U20       0.051367
     89 HO4          8.7370    -5.8900    23.1330 ho         1 U20       0.484000
     90 HO6          9.8260    -8.3820    23.1500 ho         1 U20       0.463000
     91 H1          13.6870    -6.3780    20.3070 h2         1 U20       0.095700
     92 H5'1        14.9970    -3.4990    27.3470 h1         1 U20       0.024700
     93 H5'2        16.5960    -4.2230    27.4000 h1         1 U20       0.024700
     94 H7          16.6330    -1.8330    27.8080 h1         1 U20       0.033700
     95 H8          14.7460    -1.5100    25.7370 h1         1 U20       0.153700
     96 HO3         16.4110     0.4540    26.8910 ho         1 U20       0.483000
     97 H9          16.2740    -1.8350    24.0110 h1         1 U20       0.146700
     98 HO2         16.7590     0.1670    23.1650 ho         1 U20       0.510000
     99 H10         18.4100    -0.3370    25.5960 h2         1 U20       0.068700
    100 HBP         17.7320    -3.4020    23.7970 h4         1 U20       0.283000
    101 HBO         19.2130    -4.3540    22.1030 ha         1 U20       0.245000
    102 HNBM        21.7620    -1.0880    22.8250 hn         1 U20       0.314500
    103 CAM          9.0230    -3.2230    20.2500 c          1 U20       0.603100
    104 HBL1         8.4820    -1.3150    17.3700 hc         1 U20       0.057700
    105 CBR          7.5550     0.5180    18.0340 c3         1 U20      -0.066400
    106 HBL2         9.0890    -0.7290    18.9040 hc         1 U20       0.057700
@<TRIPOS>BOND
     1     1     2 1   
     2     1     5 1   
     3     1    25 1   
     4     1    54 1   
     5     2     3 1   
     6     2    27 1   
     7     2    55 1   
     8     3    26 1   
     9     3    56 1   
    10     3    57 1   
    11     4    21 1   
    12     4    22 1   
    13     4    58 1   
    14     5    20 1   
    15     5    21 1   
    16     5    59 1   
    17     6     7 1   
    18     6    60 1   
    19     6    61 1   
    20     6    62 1   
    21     7     8 1   
    22     7    63 1   
    23     7    64 1   
    24     8     9 1   
    25     8    65 1   
    26     8    66 1   
    27     9    10 1   
    28     9    67 1   
    29     9    68 1   
    30    10    11 1   
    31    10    69 1   
    32    10    70 1   
    33    11    12 1   
    34    11    71 1   
    35    11    72 1   
    36    12    13 1   
    37    12    73 1   
    38    12    74 1   
    39    13    14 1   
    40    13    75 1   
    41    13    76 1   
    42    14    77 1   
    43    14    78 1   
    44    14   105 1   
    45    15    16 1   
    46    15   104 1   
    47    15   105 1   
    48    15   106 1   
    49    16    17 1   
    50    16    18 1   
    51    16    81 1   
    52    17    82 1   
    53    18    83 1   
    54    18    84 1   
    55    18   103 1   
    56    19   103 2   
    57    20   103 1   
    58    21    28 1   
    59    21    85 1   
    60    22    23 1   
    61    22    24 2   
    62    23    86 1   
    63    23    87 1   
    64    23    88 1   
    65    25    89 1   
    66    26    90 1   
    67    27    28 1   
    68    28    29 1   
    69    28    91 1   
    70    29    30 1   
    71    30    31 1   
    72    30    32 1   
    73    30    33 1   
    74    33    34 1   
    75    34    35 1   
    76    34    36 1   
    77    34    37 1   
    78    37    38 1   
    79    38    39 1   
    80    38    92 1   
    81    38    93 1   
    82    39    40 1   
    83    39    41 1   
    84    39    94 1   
    85    40    45 1   
    86    41    42 1   
    87    41    43 1   
    88    41    95 1   
    89    42    96 1   
    90    43    44 1   
    91    43    45 1   
    92    43    97 1   
    93    44    98 1   
    94    45    46 1   
    95    45    99 1   
    96    46    47 1   
    97    46    52 1   
    98    47    48 2   
    99    47   100 1   
   100    48    49 1   
   101    48   101 1   
   102    49    50 2   
   103    49    51 1   
   104    51    52 1   
   105    51   102 1   
   106    52    53 2   
   107    79   105 1   
   108    80   105 1   
@<TRIPOS>SUBSTRUCTURE
     1 U20         1 TEMP              0 ****  ****    0 ROOT
