@<TRIPOS>MOLECULE
U21
   94    96     1     0     0
SMALL
No Charge or Current Charge


@<TRIPOS>ATOM
      1 C4          -2.3170     0.6920    -2.1900 c6         1 U21       0.128300
      2 C5          -1.3180     1.0340    -3.3440 c6         1 U21       0.158300
      3 C6          -1.8370     0.5480    -4.7390 c3         1 U21       0.167600
      4 N2          -1.3990     3.6370     0.1740 ns         1 U21      -0.506900
      5 C3          -1.8000     1.3160    -0.8520 c6         1 U21       0.170300
      6 CBX        -12.2030    -6.4810     1.6190 c3         1 U21      -0.087100
      7 CBW        -10.8740    -6.1240     0.9260 c3         1 U21      -0.075400
      8 CBV        -10.1360    -4.9480     1.6040 c3         1 U21      -0.075400
      9 CBU         -8.8040    -4.5900     0.9090 c3         1 U21      -0.075400
     10 CBS         -8.0660    -3.4150     1.5870 c3         1 U21      -0.075400
     11 CBL         -5.9960    -1.8790     1.5760 c3         1 U21      -0.110400
     12 CBJ         -4.6350    -1.5270     0.9310 c3         1 U21       0.173300
     13 OBY         -4.8440    -1.0800    -0.4150 oh         1 U21      -0.642000
     14 CBI         -3.8800    -0.4330     1.7140 c3         1 U21      -0.176400
     15 CAM         -2.5850    -0.0860     0.9930 c          1 U21       0.604100
     16 OAY         -1.5890    -0.7950     1.0180 o          1 U21      -0.430000
     17 O3          -2.7260     1.0390     0.2240 os         1 U21      -0.466100
     18 C2          -1.6200     2.8430    -1.0620 c6         1 U21       0.067700
     19 CAP         -1.7680     4.9490     0.3310 c          1 U21       0.619100
     20 CAQ         -1.4020     5.5860     1.6640 c3         1 U21      -0.179100
     21 OAR         -2.3670     5.5630    -0.5410 o          1 U21      -0.692100
     22 O4          -2.5560    -0.7260    -2.0700 oh         1 U21      -0.706000
     23 O6          -0.9700     0.9050    -5.8300 oh         1 U21      -0.668000
     24 O5          -1.0990     2.4760    -3.4150 os         1 U21      -0.460000
     25 C1          -0.5660     3.0700    -2.2100 c6         1 U21       0.435300
     26 O1           0.7420     2.5040    -2.0290 os         1 U21      -0.625400
     27 PAO          1.7010     2.9160    -0.8080 p5         1 U21       1.501800
     28 OAT          1.4120     4.3150    -0.3870 o          1 U21      -0.834500
     29 OAS          3.1210     2.7300    -1.2260 o          1 U21      -0.834500
     30 OAN          1.2120     1.7800     0.1600 os         1 U21      -0.711800
     31 PAU          1.4870     2.1040     1.6670 p5         1 U21       1.492800
     32 OAW          0.3920     2.9590     2.2040 o          1 U21      -0.845000
     33 OAV          2.8500     2.6140     1.9890 o          1 U21      -0.845000
     34 O9           1.2830     0.6160     2.2560 os         1 U21      -0.578400
     35 C8           2.2870    -0.4100     2.1650 c3         1 U21       0.224600
     36 C7           2.3450    -1.0240     0.7290 c5         1 U21       0.163300
     37 O8           3.5670    -0.5800     0.0700 os         1 U21      -0.421000
     38 C9           2.3950    -2.6020     0.7190 c5         1 U21       0.099300
     39 O7           1.7980    -3.1840    -0.4470 oh         1 U21      -0.720000
     40 C10          3.9250    -2.8630     0.6940 c5         1 U21       0.080300
     41 O2           4.2210    -4.2120     0.2600 oh         1 U21      -0.727000
     42 C11          4.3190    -1.7420    -0.3210 c5         1 U21       0.347700
     43 NAX          5.7960    -1.5550    -0.2750 n          1 U21      -0.328000
     44 CBP          6.5580    -2.0350    -1.3420 cc         1 U21      -0.008400
     45 CBO          7.9130    -1.8050    -1.3550 cd         1 U21      -0.394200
     46 CBN          8.5830    -1.0670    -0.2820 c          1 U21       0.582200
     47 OBQ          9.7780    -0.8350    -0.2530 o          1 U21      -0.545000
     48 NBM          7.7400    -0.6630     0.6970 ns         1 U21      -0.472500
     49 CBK          6.3980    -0.8520     0.7940 c          1 U21       0.625000
     50 OBT          5.8030    -0.4560     1.7810 o          1 U21      -0.548000
     51 H4          -3.2710     1.1810    -2.4340 h1         1 U21       0.021700
     52 H5          -0.3590     0.5310    -3.1520 h1         1 U21       0.103700
     53 H61         -1.9520    -0.5430    -4.7090 h1         1 U21      -0.002800
     54 H62         -2.8340     0.9770    -4.9050 h1         1 U21      -0.002800
     55 HN2         -0.8430     3.2470     0.9400 hn         1 U21       0.403500
     56 H3          -0.8240     0.8710    -0.6160 h1         1 U21       0.136700
     57 HBX1       -12.6890    -7.3190     1.1040 hc         1 U21       0.027367
     58 HBX2       -12.0320    -6.7730     2.6620 hc         1 U21       0.027367
     59 HBX3       -12.8900    -5.6260     1.6060 hc         1 U21       0.027367
     60 HBW1       -10.2250    -7.0080     0.9240 hc         1 U21       0.036200
     61 HBW2       -11.0750    -5.8710    -0.1220 hc         1 U21       0.036200
     62 HBV1       -10.7900    -4.0670     1.6060 hc         1 U21       0.034700
     63 HBV2        -9.9390    -5.2040     2.6520 hc         1 U21       0.034700
     64 HBU1        -8.1510    -5.4720     0.9070 hc         1 U21       0.038200
     65 HBU2        -9.0010    -4.3350    -0.1390 hc         1 U21       0.038200
     66 HBS1        -8.7190    -2.5330     1.5890 hc         1 U21       0.033200
     67 HBS2        -7.8690    -3.6700     2.6360 hc         1 U21       0.033200
     68 HBR1        -6.0800    -3.9380     0.8930 hc         1 U21       0.046700
     69 HBR2        -6.9340    -2.8070    -0.1560 hc         1 U21       0.046700
     70 HBJ         -4.0100    -2.4340     0.9300 h1         1 U21       0.100700
     71 HOBY        -5.7070    -0.6110    -0.4230 ho         1 U21       0.422000
     72 HBI1        -4.5150     0.4580     1.7850 hc         1 U21       0.064700
     73 HBI2        -3.6440    -0.8140     2.7140 hc         1 U21       0.064700
     74 H2          -2.5790     3.2000    -1.4640 h1         1 U21       0.060700
     75 HAQ1        -1.7120     4.9250     2.4810 hc         1 U21       0.063367
     76 HAQ2        -0.3110     5.5890     1.7620 hc         1 U21       0.063367
     77 HAQ3        -1.8090     6.5970     1.7740 hc         1 U21       0.063367
     78 HO4         -3.3490    -0.8300    -1.4800 ho         1 U21       0.479000
     79 HO6         -1.4190     0.6160    -6.6560 ho         1 U21       0.472000
     80 H1          -0.4660     4.1560    -2.3690 h2         1 U21       0.093700
     81 H5'1         3.2730    -0.0170     2.4420 h1         1 U21       0.029700
     82 H5'2         2.0480    -1.2040     2.8830 h1         1 U21       0.029700
     83 H7           1.4740    -0.6810     0.1560 h1         1 U21       0.083700
     84 H8           1.9350    -3.0270     1.6230 h1         1 U21       0.049700
     85 HO3          2.3750    -3.9680    -0.6270 ho         1 U21       0.499000
     86 H9           4.3600    -2.6610     1.6850 h1         1 U21       0.107700
     87 HO2          5.1990    -4.3360     0.3220 ho         1 U21       0.501000
     88 H10          4.0450    -2.0260    -1.3440 h2         1 U21       0.049700
     89 HBP          5.9890    -2.5640    -2.1020 h4         1 U21       0.172000
     90 HBO          8.5540    -2.1500    -2.1580 ha         1 U21       0.188000
     91 HNBM         8.1620    -0.1620     1.4600 hn         1 U21       0.443500
     92 HBL1        -6.6440    -0.9930     1.5740 hc         1 U21       0.037200
     93 CBR         -6.7340    -3.0570     0.8930 c3         1 U21      -0.072400
     94 HBL2        -5.8260    -2.1380     2.6290 hc         1 U21       0.037200
@<TRIPOS>BOND
     1     1     2 1   
     2     1     5 1   
     3     1    22 1   
     4     1    51 1   
     5     2     3 1   
     6     2    24 1   
     7     2    52 1   
     8     3    23 1   
     9     3    53 1   
    10     3    54 1   
    11     4    18 1   
    12     4    19 1   
    13     4    55 1   
    14     5    17 1   
    15     5    18 1   
    16     5    56 1   
    17     6     7 1   
    18     6    57 1   
    19     6    58 1   
    20     6    59 1   
    21     7     8 1   
    22     7    60 1   
    23     7    61 1   
    24     8     9 1   
    25     8    62 1   
    26     8    63 1   
    27     9    10 1   
    28     9    64 1   
    29     9    65 1   
    30    10    66 1   
    31    10    67 1   
    32    10    93 1   
    33    11    12 1   
    34    11    92 1   
    35    11    93 1   
    36    11    94 1   
    37    12    13 1   
    38    12    14 1   
    39    12    70 1   
    40    13    71 1   
    41    14    15 1   
    42    14    72 1   
    43    14    73 1   
    44    15    16 2   
    45    15    17 1   
    46    18    25 1   
    47    18    74 1   
    48    19    20 1   
    49    19    21 2   
    50    20    75 1   
    51    20    76 1   
    52    20    77 1   
    53    22    78 1   
    54    23    79 1   
    55    24    25 1   
    56    25    26 1   
    57    25    80 1   
    58    26    27 1   
    59    27    28 1   
    60    27    29 1   
    61    27    30 1   
    62    30    31 1   
    63    31    32 1   
    64    31    33 1   
    65    31    34 1   
    66    34    35 1   
    67    35    36 1   
    68    35    81 1   
    69    35    82 1   
    70    36    37 1   
    71    36    38 1   
    72    36    83 1   
    73    37    42 1   
    74    38    39 1   
    75    38    40 1   
    76    38    84 1   
    77    39    85 1   
    78    40    41 1   
    79    40    42 1   
    80    40    86 1   
    81    41    87 1   
    82    42    43 1   
    83    42    88 1   
    84    43    44 1   
    85    43    49 1   
    86    44    45 2   
    87    44    89 1   
    88    45    46 1   
    89    45    90 1   
    90    46    47 2   
    91    46    48 1   
    92    48    49 1   
    93    48    91 1   
    94    49    50 2   
    95    68    93 1   
    96    69    93 1   
@<TRIPOS>SUBSTRUCTURE
     1 U21         1 TEMP              0 ****  ****    0 ROOT
