@<TRIPOS>MOLECULE
U21
   94    96     1     0     0
SMALL
abcg2


@<TRIPOS>ATOM
      1 C4          -1.4730     1.3150    -3.1910 c6         1 U21       0.128300
      2 C5          -0.0740     1.8360    -3.5570 c6         1 U21       0.158300
      3 C6           0.0220     2.1050    -5.0440 c3         1 U21       0.167600
      4 N2          -1.3740     2.5130     0.3830 ns         1 U21      -0.506900
      5 C3          -1.6390     1.2570    -1.6820 c6         1 U21       0.170300
      6 CBX        -12.9010    -5.3710     2.7230 c3         1 U21      -0.087100
      7 CBW        -11.4420    -5.4510     2.2930 c3         1 U21      -0.075400
      8 CBV        -10.8790    -4.1030     1.8610 c3         1 U21      -0.075400
      9 CBU         -9.4230    -4.1700     1.4180 c3         1 U21      -0.075400
     10 CBS         -8.8570    -2.8160     1.0070 c3         1 U21      -0.075400
     11 CBL         -6.8320    -1.5240     0.1890 c3         1 U21      -0.110400
     12 CBJ         -5.3750    -1.5720    -0.2570 c3         1 U21       0.173300
     13 OBY         -5.1920    -2.3700    -1.4090 oh         1 U21      -0.642000
     14 CBI         -4.8280    -0.1670    -0.4750 c3         1 U21      -0.176400
     15 CAM         -3.3520    -0.1470    -0.7740 c          1 U21       0.604100
     16 OAY         -2.5760    -1.0100    -0.4550 o          1 U21      -0.430000
     17 O3          -3.0110     0.9780    -1.3980 os         1 U21      -0.466100
     18 C2          -1.2880     2.5940    -1.0480 c6         1 U21       0.067700
     19 CAP         -1.6300     3.5900     1.1450 c          1 U21       0.619100
     20 CAQ         -1.4340     3.3630     2.6240 c3         1 U21      -0.179100
     21 OAR         -1.9880     4.6720     0.6910 o          1 U21      -0.692100
     22 O4          -1.6800     0.0200    -3.7010 oh         1 U21      -0.706000
     23 O6           1.3380     2.4730    -5.3680 oh         1 U21      -0.668000
     24 O5           0.1950     3.0580    -2.8900 os         1 U21      -0.460000
     25 C1           0.1180     3.0130    -1.5010 c6         1 U21       0.435300
     26 O1           1.0490     2.1030    -0.9890 os         1 U21      -0.625400
     27 PAO          2.1920     2.5290     0.1170 p5         1 U21       1.501800
     28 OAT          1.6790     3.6220     0.9940 o          1 U21      -0.834500
     29 OAS          3.5050     2.7070    -0.6030 o          1 U21      -0.834500
     30 OAN          2.2820     1.1030     0.8940 os         1 U21      -0.711800
     31 PAU          1.3450     0.5530     2.1350 p5         1 U21       1.492800
     32 OAW         -0.0780     0.4370     1.6650 o          1 U21      -0.845000
     33 OAV          1.7090     1.2690     3.3930 o          1 U21      -0.845000
     34 O9           1.8890    -0.9860     2.1780 os         1 U21      -0.578400
     35 C8           3.1020    -1.3070     2.8320 c3         1 U21       0.224600
     36 C7           3.5610    -2.6570     2.3130 c5         1 U21       0.163300
     37 O8           3.6890    -2.6400     0.8930 os         1 U21      -0.421000
     38 C9           4.9300    -3.0710     2.8350 c5         1 U21       0.099300
     39 O7           5.0050    -4.4730     2.8340 oh         1 U21      -0.720000
     40 C10          5.8690    -2.4700     1.7760 c5         1 U21       0.080300
     41 O2           7.0790    -3.1650     1.6340 oh         1 U21      -0.727000
     42 C11          5.0330    -2.6450     0.5030 c5         1 U21       0.347700
     43 NAX          5.1970    -1.6870    -0.5830 n          1 U21      -0.328000
     44 CBP          5.1200    -2.1710    -1.8630 cc         1 U21      -0.008400
     45 CBO          4.8620    -1.4050    -2.9330 cd         1 U21      -0.394200
     46 CBN          4.5470    -0.0060    -2.7440 c          1 U21       0.582200
     47 OBQ          4.2010     0.7570    -3.6290 o          1 U21      -0.545000
     48 NBM          4.6670     0.4240    -1.4390 ns         1 U21      -0.472500
     49 CBK          5.0310    -0.3220    -0.3540 c          1 U21       0.625000
     50 OBT          5.2050     0.1830     0.7340 o          1 U21      -0.548000
     51 H4          -2.2160     2.0220    -3.5890 h1         1 U21       0.021700
     52 H5           0.6730     1.0770    -3.2880 h1         1 U21       0.103700
     53 H61         -0.2830     1.1960    -5.5750 h1         1 U21      -0.002800
     54 H62         -0.7030     2.8880    -5.3110 h1         1 U21      -0.002800
     55 HN2         -0.9220     1.7060     0.8390 hn         1 U21       0.403500
     56 H3          -1.0050     0.4690    -1.2680 h1         1 U21       0.136700
     57 HBX1       -13.2860    -6.3450     3.0260 hc         1 U21       0.027367
     58 HBX2       -13.0280    -4.6880     3.5640 hc         1 U21       0.027367
     59 HBX3       -13.5300    -5.0070     1.9080 hc         1 U21       0.027367
     60 HBW1       -10.8370    -5.8490     3.1130 hc         1 U21       0.036200
     61 HBW2       -11.3420    -6.1650     1.4690 hc         1 U21       0.036200
     62 HBV1       -11.4890    -3.7000     1.0450 hc         1 U21       0.034700
     63 HBV2       -10.9750    -3.3910     2.6890 hc         1 U21       0.034700
     64 HBU1        -8.8140    -4.5840     2.2300 hc         1 U21       0.038200
     65 HBU2        -9.3300    -4.8710     0.5820 hc         1 U21       0.038200
     66 HBS1        -9.4700    -2.3950     0.2030 hc         1 U21       0.033200
     67 HBS2        -8.9410    -2.1190     1.8490 hc         1 U21       0.033200
     68 HBR1        -6.7950    -3.3310     1.3480 hc         1 U21       0.046700
     69 HBR2        -7.3270    -3.5640    -0.3040 hc         1 U21       0.046700
     70 HBJ         -4.7890    -2.0570     0.5290 h1         1 U21       0.100700
     71 HOBY        -5.7620    -2.0260    -2.1060 ho         1 U21       0.422000
     72 HBI1        -5.3810     0.3440    -1.2690 hc         1 U21       0.064700
     73 HBI2        -4.9790     0.4350     0.4280 hc         1 U21       0.064700
     74 H2          -1.9870     3.3550    -1.4050 h1         1 U21       0.060700
     75 HAQ1        -1.8480     2.4080     2.9470 hc         1 U21       0.063367
     76 HAQ2        -0.3650     3.3340     2.8360 hc         1 U21       0.063367
     77 HAQ3        -1.8910     4.1670     3.1970 hc         1 U21       0.063367
     78 HO4         -2.1450     0.0810    -4.5390 ho         1 U21       0.479000
     79 HO6          1.3900     2.5690    -6.3230 ho         1 U21       0.472000
     80 H1           0.3180     4.0300    -1.1550 h2         1 U21       0.093700
     81 H5'1         3.8680    -0.5480     2.6640 h1         1 U21       0.029700
     82 H5'2         2.9490    -1.3880     3.9140 h1         1 U21       0.029700
     83 H7           2.8100    -3.4100     2.5740 h1         1 U21       0.083700
     84 H8           5.1340    -2.6550     3.8310 h1         1 U21       0.049700
     85 HO3          5.9380    -4.7140     2.7720 ho         1 U21       0.499000
     86 H9           6.0350    -1.4200     2.0050 h1         1 U21       0.107700
     87 HO2          7.7250    -2.7810     2.2350 ho         1 U21       0.501000
     88 H10          5.2950    -3.6140     0.0630 h2         1 U21       0.049700
     89 HBP          5.2940    -3.2340    -1.9640 h4         1 U21       0.172000
     90 HBO          4.8360    -1.8350    -3.9220 ha         1 U21       0.188000
     91 HNBM         4.3080     1.3790    -1.1940 hn         1 U21       0.443500
     92 HBL1        -7.4420    -1.0600    -0.5970 hc         1 U21       0.037200
     93 CBR         -7.4040    -2.8880     0.5520 c3         1 U21      -0.072400
     94 HBL2        -6.9070    -0.8600     1.0560 hc         1 U21       0.037200
@<TRIPOS>BOND
     1     1     2 1   
     2     1     5 1   
     3     1    22 1   
     4     1    51 1   
     5     2     3 1   
     6     2    24 1   
     7     2    52 1   
     8     3    23 1   
     9     3    53 1   
    10     3    54 1   
    11     4    18 1   
    12     4    19 1   
    13     4    55 1   
    14     5    17 1   
    15     5    18 1   
    16     5    56 1   
    17     6     7 1   
    18     6    57 1   
    19     6    58 1   
    20     6    59 1   
    21     7     8 1   
    22     7    60 1   
    23     7    61 1   
    24     8     9 1   
    25     8    62 1   
    26     8    63 1   
    27     9    10 1   
    28     9    64 1   
    29     9    65 1   
    30    10    66 1   
    31    10    67 1   
    32    10    93 1   
    33    11    12 1   
    34    11    92 1   
    35    11    93 1   
    36    11    94 1   
    37    12    13 1   
    38    12    14 1   
    39    12    70 1   
    40    13    71 1   
    41    14    15 1   
    42    14    72 1   
    43    14    73 1   
    44    15    16 2   
    45    15    17 1   
    46    18    25 1   
    47    18    74 1   
    48    19    20 1   
    49    19    21 2   
    50    20    75 1   
    51    20    76 1   
    52    20    77 1   
    53    22    78 1   
    54    23    79 1   
    55    24    25 1   
    56    25    26 1   
    57    25    80 1   
    58    26    27 1   
    59    27    28 1   
    60    27    29 1   
    61    27    30 1   
    62    30    31 1   
    63    31    32 1   
    64    31    33 1   
    65    31    34 1   
    66    34    35 1   
    67    35    36 1   
    68    35    81 1   
    69    35    82 1   
    70    36    37 1   
    71    36    38 1   
    72    36    83 1   
    73    37    42 1   
    74    38    39 1   
    75    38    40 1   
    76    38    84 1   
    77    39    85 1   
    78    40    41 1   
    79    40    42 1   
    80    40    86 1   
    81    41    87 1   
    82    42    43 1   
    83    42    88 1   
    84    43    44 1   
    85    43    49 1   
    86    44    45 2   
    87    44    89 1   
    88    45    46 1   
    89    45    90 1   
    90    46    47 2   
    91    46    48 1   
    92    48    49 1   
    93    48    91 1   
    94    49    50 2   
    95    68    93 1   
    96    69    93 1   
@<TRIPOS>SUBSTRUCTURE
     1 U21         1 TEMP              0 ****  ****    0 ROOT
