@<TRIPOS>MOLECULE
U22
  101   103     1     0     0
SMALL
No Charge or Current Charge


@<TRIPOS>ATOM
      1 C1          -1.3570     3.6670     1.3590 c6         1 U22       0.450300
      2 O1          -2.5190     2.8780     1.0960 os         1 U22      -0.620400
      3 C2          -0.1760     3.4940     0.3340 c6         1 U22       0.065700
      4 N2          -0.4820     3.9210    -1.0490 ns         1 U22      -0.466900
      5 C3           0.3630     2.0340     0.3720 c6         1 U22       0.052700
      6 N3           1.5320     1.8680    -0.5140 ns         1 U22      -0.489900
      7 C4           0.7710     1.6800     1.8370 c6         1 U22       0.127300
      8 O4           1.2800     0.3340     1.9290 oh         1 U22      -0.742000
      9 C5          -0.4340     1.9200     2.7970 c6         1 U22       0.178300
     10 O5          -0.8920     3.2970     2.6750 os         1 U22      -0.464000
     11 C6          -0.0610     1.6560     4.2950 c3         1 U22       0.171600
     12 O6          -1.1300     1.9440     5.2160 oh         1 U22      -0.683000
     13 C7          -2.4570    -2.7130    -1.6830 c5         1 U22       0.339700
     14 C8          -3.6990    -3.3520    -0.9470 c5         1 U22       0.087300
     15 O2          -4.4270    -4.2810    -1.7610 oh         1 U22      -0.737000
     16 C9          -4.6030    -2.1010    -0.7190 c5         1 U22       0.096300
     17 O3          -5.9970    -2.4780    -0.6840 oh         1 U22      -0.703000
     18 C10         -4.2150    -1.2310    -1.9560 c5         1 U22       0.161300
     19 O7          -2.7770    -1.3370    -1.9700 os         1 U22      -0.408000
     20 C11         -4.6860     0.2490    -1.8830 c3         1 U22       0.209600
     21 O8          -3.8990     1.0630    -2.7740 os         1 U22      -0.624400
     22 CAM          1.8240     0.7270    -1.2210 c          1 U22       0.613100
     23 OAN         -2.9670     2.6470    -1.2290 os         1 U22      -0.719800
     24 PAO         -3.6040     3.3610     0.0190 p5         1 U22       1.468800
     25 CAP          0.3210     4.7040    -1.8420 c          1 U22       0.615100
     26 CAQ         -0.1840     4.9310    -3.2570 c3         1 U22      -0.189100
     27 OAR          1.3700     5.1900    -1.4410 o          1 U22      -0.693100
     28 OAS         -4.9240     2.8040     0.4350 o          1 U22      -0.840000
     29 OAT         -3.5930     4.8460    -0.0980 o          1 U22      -0.840000
     30 PAU         -3.8530     2.6540    -2.5360 p5         1 U22       1.465800
     31 OAV         -5.2310     3.2130    -2.4350 o          1 U22      -0.845000
     32 OAW         -3.0920     3.3070    -3.6380 o          1 U22      -0.845000
     33 NAX         -1.2580    -2.8760    -0.8160 n          1 U22      -0.305000
     34 OAY          0.9810    -0.1000    -1.5280 o          1 U22      -0.599100
     35 CBI          3.2970     0.5590    -1.5580 c3         1 U22      -0.203400
     36 CBJ          3.9320    -0.4040    -0.5380 c3         1 U22       0.167300
     37 CBK         -0.9750    -1.9500     0.2180 c          1 U22       0.624000
     38 CBL          5.4230    -0.6830    -0.8360 c3         1 U22      -0.105400
     39 NBM          0.2140    -2.1190     0.8560 ns         1 U22      -0.457500
     40 CBN          1.1490    -3.0750     0.6550 c          1 U22       0.599200
     41 CBO          0.7890    -4.0310    -0.3840 cc         1 U22      -0.422200
     42 CBP         -0.3820    -3.9210    -1.0950 cd         1 U22       0.041600
     43 OBQ          2.1840    -3.1250     1.2940 o          1 U22      -0.580000
     44 CBR          6.0570    -1.7560     0.0840 c3         1 U22      -0.075400
     45 CBS          7.5320    -2.0510    -0.2660 c3         1 U22      -0.074400
     46 OBT         -1.7340    -1.0670     0.5810 o          1 U22      -0.526000
     47 CBU          8.1670    -3.1240     0.6470 c3         1 U22      -0.075400
     48 CBV          9.6410    -3.4200     0.2960 c3         1 U22      -0.074400
     49 CBW         10.2760    -4.4920     1.2080 c3         1 U22      -0.075400
     50 CBX         11.7510    -4.7880     0.8580 c3         1 U22      -0.075400
     51 CBY         12.3860    -5.8610     1.7700 c3         1 U22      -0.075400
     52 CBZ         13.8570    -6.1560     1.4200 c3         1 U22      -0.087100
     53 OCC          3.8050     0.1760     0.7680 oh         1 U22      -0.655000
     54 H1          -1.6350     4.7330     1.3880 h2         1 U22       0.106700
     55 H2           0.6310     4.1450     0.7000 h1         1 U22       0.057700
     56 HN2         -1.3170     3.5380    -1.4870 hn         1 U22       0.368500
     57 H3          -0.4410     1.3540     0.0480 h1         1 U22       0.126700
     58 HN3          2.3070     2.5050    -0.3800 hn         1 U22       0.300500
     59 H4           1.5710     2.3720     2.1390 h1         1 U22       0.013700
     60 HO4          2.1790     0.3400     1.4930 ho         1 U22       0.520000
     61 H5          -1.2530     1.2370     2.5290 h1         1 U22       0.099700
     62 H6           0.2370     0.6040     4.3970 h1         1 U22       0.010700
     63 H6A          0.8170     2.2680     4.5420 h1         1 U22       0.010700
     64 HO6         -0.7700     1.8090     6.1220 ho         1 U22       0.474000
     65 H7          -2.2530    -3.2440    -2.6200 h2         1 U22       0.061700
     66 HO2         -5.3670    -3.9910    -1.6090 ho         1 U22       0.527000
     67 HO3         -6.4600    -1.8740    -0.0550 ho         1 U22       0.502000
     68 H10         -4.6040    -1.6700    -2.8850 h1         1 U22       0.074700
     69 H11         -5.7530     0.3010    -2.1380 h1         1 U22       0.074200
     70 H5'A        -4.5730     0.5840    -0.8440 h1         1 U22       0.074200
     71 HAQ          0.4880     5.5620    -3.8490 hc         1 U22       0.069700
     72 HAQA        -0.3500     3.9590    -3.7350 hc         1 U22       0.069700
     73 HAQB        -1.1950     5.3490    -3.2110 hc         1 U22       0.069700
     74 HBI          3.3900     0.1250    -2.5600 hc         1 U22       0.061200
     75 HBIA         3.8190     1.5220    -1.5060 hc         1 U22       0.061200
     76 HBJ          3.3880    -1.3600    -0.5840 h1         1 U22       0.100700
     77 HBL          5.5140    -1.0210    -1.8750 hc         1 U22       0.036700
     78 HBLA         5.9950     0.2500    -0.7590 hc         1 U22       0.036700
     79 HNBM         0.4530    -1.4020     1.5280 hn         1 U22       0.355500
     80 HBO          1.5050    -4.8230    -0.5700 ha         1 U22       0.198000
     81 HBP         -0.6970    -4.5950    -1.8890 h4         1 U22       0.191000
     82 HBR          5.9980    -1.4310     1.1300 hc         1 U22       0.053200
     83 HBRA         5.4770    -2.6840     0.0060 hc         1 U22       0.053200
     84 HBS          7.5960    -2.3840    -1.3100 hc         1 U22       0.031700
     85 HBSA         8.1130    -1.1240    -0.1890 hc         1 U22       0.031700
     86 HBU          8.1040    -2.7920     1.6900 hc         1 U22       0.040200
     87 HBUA         7.5850    -4.0510     0.5700 hc         1 U22       0.040200
     88 HBV          9.7040    -3.7520    -0.7480 hc         1 U22       0.034200
     89 HBVA        10.2230    -2.4920     0.3730 hc         1 U22       0.034200
     90 HBW         10.2140    -4.1600     2.2520 hc         1 U22       0.037200
     91 HBWA         9.6950    -5.4200     1.1320 hc         1 U22       0.037200
     92 HBX         11.8130    -5.1200    -0.1860 hc         1 U22       0.035200
     93 HBXA        12.3320    -3.8610     0.9340 hc         1 U22       0.035200
     94 HBY         12.3270    -5.5310     2.8140 hc         1 U22       0.036200
     95 HBYA        11.8080    -6.7900     1.6940 hc         1 U22       0.036200
     96 HBZ         13.9450    -6.5230     0.3900 hc         1 U22       0.028700
     97 HBZA        14.4690    -5.2520     1.5200 hc         1 U22       0.028700
     98 HBZB        14.2630    -6.9210     2.0920 hc         1 U22       0.028700
     99 HOCC         4.7180     0.3450     1.0880 ho         1 U22       0.430000
    100 H8          -3.4190    -3.8170     0.0100 h1         1 U22       0.049700
    101 H9          -4.3100    -1.5900     0.2110 h1         1 U22       0.092700
@<TRIPOS>BOND
     1     1     2 1   
     2     1     3 1   
     3     1    10 1   
     4     1    54 1   
     5     2    24 1   
     6     3     4 1   
     7     3     5 1   
     8     3    55 1   
     9     4    25 1   
    10     4    56 1   
    11     5     6 1   
    12     5     7 1   
    13     5    57 1   
    14     6    22 1   
    15     6    58 1   
    16     7     8 1   
    17     7     9 1   
    18     7    59 1   
    19     8    60 1   
    20     9    10 1   
    21     9    11 1   
    22     9    61 1   
    23    11    12 1   
    24    11    62 1   
    25    11    63 1   
    26    12    64 1   
    27    13    14 1   
    28    13    19 1   
    29    13    33 1   
    30    13    65 1   
    31    14    15 1   
    32    14    16 1   
    33    14   100 1   
    34    15    66 1   
    35    16    17 1   
    36    16    18 1   
    37    16   101 1   
    38    17    67 1   
    39    18    19 1   
    40    18    20 1   
    41    18    68 1   
    42    20    21 1   
    43    20    69 1   
    44    20    70 1   
    45    21    30 1   
    46    22    34 2   
    47    22    35 1   
    48    23    24 1   
    49    23    30 1   
    50    24    28 1   
    51    24    29 1   
    52    25    26 1   
    53    25    27 2   
    54    26    71 1   
    55    26    72 1   
    56    26    73 1   
    57    30    31 1   
    58    30    32 1   
    59    33    37 1   
    60    33    42 1   
    61    35    36 1   
    62    35    74 1   
    63    35    75 1   
    64    36    38 1   
    65    36    53 1   
    66    36    76 1   
    67    37    39 1   
    68    37    46 2   
    69    38    44 1   
    70    38    77 1   
    71    38    78 1   
    72    39    40 1   
    73    39    79 1   
    74    40    41 1   
    75    40    43 2   
    76    41    42 2   
    77    41    80 1   
    78    42    81 1   
    79    44    45 1   
    80    44    82 1   
    81    44    83 1   
    82    45    47 1   
    83    45    84 1   
    84    45    85 1   
    85    47    48 1   
    86    47    86 1   
    87    47    87 1   
    88    48    49 1   
    89    48    88 1   
    90    48    89 1   
    91    49    50 1   
    92    49    90 1   
    93    49    91 1   
    94    50    51 1   
    95    50    92 1   
    96    50    93 1   
    97    51    52 1   
    98    51    94 1   
    99    51    95 1   
   100    52    96 1   
   101    52    97 1   
   102    52    98 1   
   103    53    99 1   
@<TRIPOS>SUBSTRUCTURE
     1 U22         1 TEMP              0 ****  ****    0 ROOT
