@<TRIPOS>MOLECULE
U22
  101   103     1     0     0
SMALL
bcc


@<TRIPOS>ATOM
      1 C1          -1.1130     3.6170     1.1050 c6         1 U22       0.403900
      2 O1          -2.3300     3.0130     0.7890 os         1 U22      -0.597200
      3 C2          -0.0290     3.1610     0.1230 c6         1 U22       0.065700
      4 N2          -0.4560     3.3250    -1.2400 ns         1 U22      -0.533900
      5 C3           0.4300     1.7260     0.3920 c6         1 U22       0.052700
      6 N3           1.5940     1.4320    -0.4060 ns         1 U22      -0.556900
      7 C4           0.7560     1.5410     1.8780 c6         1 U22       0.104100
      8 O4           1.0920     0.2120     2.1810 oh         1 U22      -0.619800
      9 C5          -0.4540     1.9680     2.7040 c6         1 U22       0.155100
     10 O5          -0.7420     3.3280     2.4170 os         1 U22      -0.417600
     11 C6          -0.1970     1.8650     4.1920 c3         1 U22       0.148400
     12 O6          -1.3770     2.2010     4.8830 oh         1 U22      -0.560800
     13 C7          -2.5550    -2.3830    -1.8240 c5         1 U22       0.316500
     14 C8          -3.8840    -2.8800    -1.2320 c5         1 U22       0.064100
     15 O2          -4.5920    -3.5220    -2.2600 oh         1 U22      -0.614800
     16 C9          -4.5990    -1.5840    -0.8210 c5         1 U22       0.073100
     17 O3          -5.9880    -1.6410    -1.0390 oh         1 U22      -0.580800
     18 C10         -3.9750    -0.5380    -1.7450 c5         1 U22       0.138100
     19 O7          -2.6800    -1.0180    -2.0770 os         1 U22      -0.361600
     20 C11         -3.9080     0.8090    -1.0690 c3         1 U22       0.186400
     21 O8          -3.4970     1.8270    -1.9680 os         1 U22      -0.601200
     22 CAM          1.7870     0.3000    -1.1140 c          1 U22       0.680100
     23 OAN         -3.8240     4.1430    -0.9090 os         1 U22      -0.719800
     24 PAO         -3.7410     3.8780     0.7070 p5         1 U22       1.468800
     25 CAP          0.3080     3.8850    -2.1990 c          1 U22       0.682100
     26 CAQ         -0.2590     3.7750    -3.5920 c3         1 U22      -0.189100
     27 OAR          1.3870     4.4170    -1.9730 o          1 U22      -0.693100
     28 OAS         -4.8210     2.9530     1.1540 o          1 U22      -0.840000
     29 OAT         -3.5380     5.2220     1.3310 o          1 U22      -0.840000
     30 PAU         -4.3690     3.2050    -2.1510 p5         1 U22       1.465800
     31 OAV         -5.8270     2.9290    -1.9790 o          1 U22      -0.845000
     32 OAW         -3.8390     3.8510    -3.3920 o          1 U22      -0.845000
     33 NAX         -1.3650    -2.6620    -1.0190 n          1 U22      -0.372000
     34 OAY          0.9030    -0.5030    -1.3610 o          1 U22      -0.599100
     35 CBI          3.2190     0.0720    -1.5410 c3         1 U22      -0.203400
     36 CBJ          3.8900    -0.8950    -0.5550 c3         1 U22       0.144100
     37 CBK         -1.1880    -2.0570     0.2080 c          1 U22       0.833500
     38 CBL          5.3560    -1.1160    -0.9020 c3         1 U22      -0.105400
     39 NBM         -0.0310    -2.3920     0.8580 ns         1 U22      -0.591500
     40 CBN          0.9720    -3.2380     0.4260 c          1 U22       0.741700
     41 CBO          0.6970    -3.8500    -0.8490 cc         1 U22      -0.372200
     42 CBP         -0.4250    -3.5220    -1.5070 cd         1 U22       0.091600
     43 OBQ          1.9670    -3.4210     1.1070 o          1 U22      -0.655500
     44 CBR          6.0260    -2.2010    -0.0670 c3         1 U22      -0.075400
     45 CBS          7.5290    -2.2830    -0.3060 c3         1 U22      -0.074400
     46 OBT         -2.0000    -1.3060     0.7050 o          1 U22      -0.601500
     47 CBU          8.2070    -3.3750     0.5110 c3         1 U22      -0.075400
     48 CBV          9.7220    -3.3920     0.3520 c3         1 U22      -0.074400
     49 CBW         10.4050    -4.4710     1.1830 c3         1 U22      -0.075400
     50 CBX         11.9230    -4.4580     1.0560 c3         1 U22      -0.075400
     51 CBY         12.6090    -5.5260     1.9010 c3         1 U22      -0.075400
     52 CBZ         14.1260    -5.5040     1.7710 c3         1 U22      -0.087100
     53 OCC          3.7370    -0.4540     0.7880 oh         1 U22      -0.592800
     54 H1          -1.1920     4.7050     1.0580 h2         1 U22       0.106700
     55 H2           0.8230     3.8280     0.2780 h1         1 U22       0.057700
     56 HN2         -1.3120     2.8660    -1.5160 hn         1 U22       0.368500
     57 H3          -0.3570     1.0200     0.1140 h1         1 U22       0.126700
     58 HN3          2.3860     2.0420    -0.2810 hn         1 U22       0.300500
     59 H4           1.5900     2.2160     2.1350 h1         1 U22       0.013700
     60 HO4          1.9230    -0.0110     1.7300 ho         1 U22       0.421000
     61 H5          -1.3080     1.3250     2.4460 h1         1 U22       0.099700
     62 H6           0.1240     0.8420     4.4150 h1         1 U22       0.010700
     63 H6A          0.6370     2.5300     4.4600 h1         1 U22       0.010700
     64 HO6         -1.2150     2.0740     5.8220 ho         1 U22       0.375000
     65 H7          -2.3790    -2.9260    -2.7570 h2         1 U22       0.061700
     66 HO2         -5.5170    -3.2530    -2.1700 ho         1 U22       0.428000
     67 HO3         -6.4140    -1.9630    -0.2380 ho         1 U22       0.403000
     68 H10         -4.5820    -0.4640    -2.6590 h1         1 U22       0.074700
     69 H11         -4.8970     1.0240    -0.6640 h1         1 U22       0.074200
     70 H5'A        -3.2060     0.7630    -0.2360 h1         1 U22       0.074200
     71 HAQ          0.1180     4.5830    -4.2150 hc         1 U22       0.069700
     72 HAQA         0.0690     2.8330    -4.0370 hc         1 U22       0.069700
     73 HAQB        -1.3490     3.7890    -3.6050 hc         1 U22       0.069700
     74 HBI          3.2320    -0.3710    -2.5380 hc         1 U22       0.061200
     75 HBIA         3.7850     1.0070    -1.5870 hc         1 U22       0.061200
     76 HBJ          3.3630    -1.8490    -0.6010 h1         1 U22       0.100700
     77 HBL          5.4280    -1.3740    -1.9620 hc         1 U22       0.036700
     78 HBLA         5.8980    -0.1690    -0.7860 hc         1 U22       0.036700
     79 HNBM         0.1560    -1.8430     1.6890 hn         1 U22       0.355500
     80 HBO          1.4070    -4.5370    -1.2810 ha         1 U22       0.148000
     81 HBP         -0.6450    -3.9460    -2.4770 h4         1 U22       0.141000
     82 HBR          5.8430    -2.0160     0.9950 hc         1 U22       0.053200
     83 HBRA         5.5640    -3.1670    -0.2950 hc         1 U22       0.053200
     84 HBS          7.7270    -2.4470    -1.3700 hc         1 U22       0.031700
     85 HBSA         7.9820    -1.3160    -0.0590 hc         1 U22       0.031700
     86 HBU          7.9570    -3.2400     1.5700 hc         1 U22       0.040200
     87 HBUA         7.7980    -4.3510     0.2260 hc         1 U22       0.040200
     88 HBV          9.9780    -3.5310    -0.7040 hc         1 U22       0.034200
     89 HBVA        10.1230    -2.4120     0.6350 hc         1 U22       0.034200
     90 HBW         10.1290    -4.3430     2.2360 hc         1 U22       0.037200
     91 HBWA        10.0240    -5.4550     0.8880 hc         1 U22       0.037200
     92 HBX         12.2030    -4.5940     0.0060 hc         1 U22       0.035200
     93 HBXA        12.3030    -3.4720     1.3450 hc         1 U22       0.035200
     94 HBY         12.3290    -5.3900     2.9500 hc         1 U22       0.036200
     95 HBYA        12.2320    -6.5120     1.6120 hc         1 U22       0.036200
     96 HBZ         14.4360    -5.6760     0.7380 hc         1 U22       0.028700
     97 HBZA        14.5360    -4.5410     2.0810 hc         1 U22       0.028700
     98 HBZB        14.5910    -6.2750     2.3860 hc         1 U22       0.028700
     99 HOCC         4.3110     0.3090     0.9260 ho         1 U22       0.391000
    100 H8          -3.7220    -3.5580    -0.3850 h1         1 U22       0.049700
    101 H9          -4.3760    -1.3550     0.2220 h1         1 U22       0.092700
@<TRIPOS>BOND
     1     1     2 1   
     2     1     3 1   
     3     1    10 1   
     4     1    54 1   
     5     2    24 1   
     6     3     4 1   
     7     3     5 1   
     8     3    55 1   
     9     4    25 1   
    10     4    56 1   
    11     5     6 1   
    12     5     7 1   
    13     5    57 1   
    14     6    22 1   
    15     6    58 1   
    16     7     8 1   
    17     7     9 1   
    18     7    59 1   
    19     8    60 1   
    20     9    10 1   
    21     9    11 1   
    22     9    61 1   
    23    11    12 1   
    24    11    62 1   
    25    11    63 1   
    26    12    64 1   
    27    13    14 1   
    28    13    19 1   
    29    13    33 1   
    30    13    65 1   
    31    14    15 1   
    32    14    16 1   
    33    14   100 1   
    34    15    66 1   
    35    16    17 1   
    36    16    18 1   
    37    16   101 1   
    38    17    67 1   
    39    18    19 1   
    40    18    20 1   
    41    18    68 1   
    42    20    21 1   
    43    20    69 1   
    44    20    70 1   
    45    21    30 1   
    46    22    34 2   
    47    22    35 1   
    48    23    24 1   
    49    23    30 1   
    50    24    28 1   
    51    24    29 1   
    52    25    26 1   
    53    25    27 2   
    54    26    71 1   
    55    26    72 1   
    56    26    73 1   
    57    30    31 1   
    58    30    32 1   
    59    33    37 1   
    60    33    42 1   
    61    35    36 1   
    62    35    74 1   
    63    35    75 1   
    64    36    38 1   
    65    36    53 1   
    66    36    76 1   
    67    37    39 1   
    68    37    46 2   
    69    38    44 1   
    70    38    77 1   
    71    38    78 1   
    72    39    40 1   
    73    39    79 1   
    74    40    41 1   
    75    40    43 2   
    76    41    42 2   
    77    41    80 1   
    78    42    81 1   
    79    44    45 1   
    80    44    82 1   
    81    44    83 1   
    82    45    47 1   
    83    45    84 1   
    84    45    85 1   
    85    47    48 1   
    86    47    86 1   
    87    47    87 1   
    88    48    49 1   
    89    48    88 1   
    90    48    89 1   
    91    49    50 1   
    92    49    90 1   
    93    49    91 1   
    94    50    51 1   
    95    50    92 1   
    96    50    93 1   
    97    51    52 1   
    98    51    94 1   
    99    51    95 1   
   100    52    96 1   
   101    52    97 1   
   102    52    98 1   
   103    53    99 1   
@<TRIPOS>SUBSTRUCTURE
     1 U22         1 TEMP              0 ****  ****    0 ROOT
