@<TRIPOS>MOLECULE
U26
   39    42     1     0     0
SMALL
abcg2


@<TRIPOS>ATOM
      1 C15         35.2330    -0.0870    29.6970 ca         1 U26       0.347900
      2 C17         33.2750    -0.6280    30.7440 ca         1 U26       0.371900
      3 C20         33.7470    -0.6720    34.4330 ca         1 U26      -0.109000
      4 C21         35.1180    -0.3400    34.5130 ca         1 U26      -0.086000
      5 C22         35.8560    -0.1040    33.3800 ca         1 U26      -0.096000
      6 C24         40.4960     5.0240    30.0660 ca         1 U26      -0.074000
      7 C02         40.0760     5.4510    27.7630 ca         1 U26       0.169000
      8 C03         39.5410     4.1890    27.5900 ca         1 U26      -0.141500
      9 C04         39.4900     3.3350    28.6890 ca         1 U26      -0.074000
     10 C05         39.9660     3.7400    29.9330 ca         1 U26      -0.124300
     11 C08         39.5930     0.3300    30.6950 c5         1 U26       0.012000
     12 C09         38.3220    -0.4920    30.6200 c          1 U26       0.560000
     13 C12         37.7600     1.7020    31.1020 c          1 U26       0.614000
     14 C14         35.9100     0.0360    30.8810 ca         1 U26      -0.074000
     15 C18         33.8630    -0.5320    32.0270 ca         1 U26      -0.095000
     16 C19         33.1300    -0.7670    33.2130 ca         1 U26      -0.079000
     17 C23         35.2420    -0.1920    32.1100 ca         1 U26       0.005000
     18 C25         40.5580     5.8910    28.9830 ca         1 U26      -0.141500
     19 N07         39.1060     1.6590    31.0050 n          1 U26      -0.430800
     20 N11         37.2870     0.3840    30.8660 n          1 U26      -0.224000
     21 N16         33.9220    -0.4210    29.6190 nb         1 U26      -0.656000
     22 O13         37.0500     2.6590    31.3420 o          1 U26      -0.517000
     23 H1          35.7510     0.0880    28.7610 h4         1 U26       0.027100
     24 H2          32.2230    -0.8900    30.6700 h4         1 U26       0.023100
     25 H3          33.1890    -0.8530    35.3420 ha         1 U26       0.118000
     26 H4          35.5920    -0.2720    35.4840 ha         1 U26       0.116000
     27 H5          36.9060     0.1460    33.4530 ha         1 U26       0.119000
     28 H6          40.8620     5.3550    31.0310 ha         1 U26       0.116500
     29 H7          39.1690     3.8840    26.6210 ha         1 U26       0.135000
     30 H8          39.0630     2.3490    28.5630 ha         1 U26       0.116500
     31 H9          40.9540     2.4780    31.3620 h1         1 U26       0.066200
     32 H10         39.6120     3.3970    32.0170 h1         1 U26       0.066200
     33 H11         40.2500    -0.0610    31.4760 h1         1 U26       0.084200
     34 H12         40.1210     0.2900    29.7390 h1         1 U26       0.084200
     35 H13         32.0800    -1.0230    33.1380 ha         1 U26       0.119000
     36 H14         40.9640     6.8890    29.0790 ha         1 U26       0.135000
     37 O10         38.2230    -1.6780    30.3950 o          1 U26      -0.484000
     38 C06         39.9450     2.8310    31.1460 c3         1 U26       0.181300
     39 F01         40.1250     6.2950    26.7000 f          1 U26      -0.181000
@<TRIPOS>BOND
     1     1    14 ar  
     2     1    21 ar  
     3     1    23 1   
     4     2    15 ar  
     5     2    21 ar  
     6     2    24 1   
     7     3     4 ar  
     8     3    16 ar  
     9     3    25 1   
    10     4     5 ar  
    11     4    26 1   
    12     5    17 ar  
    13     5    27 1   
    14     6    10 ar  
    15     6    18 ar  
    16     6    28 1   
    17     7     8 ar  
    18     7    18 ar  
    19     7    39 1   
    20     8     9 ar  
    21     8    29 1   
    22     9    10 ar  
    23     9    30 1   
    24    10    38 1   
    25    11    12 1   
    26    11    19 1   
    27    11    33 1   
    28    11    34 1   
    29    12    20 1   
    30    12    37 2   
    31    13    19 1   
    32    13    20 1   
    33    13    22 2   
    34    14    17 ar  
    35    14    20 1   
    36    15    16 ar  
    37    15    17 ar  
    38    16    35 1   
    39    18    36 1   
    40    19    38 1   
    41    31    38 1   
    42    32    38 1   
@<TRIPOS>SUBSTRUCTURE
     1 U26         1 TEMP              0 ****  ****    0 ROOT
