@<TRIPOS>MOLECULE
U26
   39    42     1     0     0
SMALL
No Charge or Current Charge


@<TRIPOS>ATOM
      1 C15         34.9190     0.0030    29.8270 ca         1 U26       0.347900
      2 C17         33.0550    -0.4250    31.1280 ca         1 U26       0.371900
      3 C20         33.9590    -0.5170    34.7430 ca         1 U26      -0.109000
      4 C21         35.3400    -0.2700    34.6720 ca         1 U26      -0.086000
      5 C22         35.9580    -0.0630    33.4270 ca         1 U26      -0.096000
      6 C24         39.2040     4.6950    29.8240 ca         1 U26      -0.074000
      7 C02         40.2310     5.3780    27.7280 ca         1 U26       0.169000
      8 C03         41.1280     4.3030    27.8110 ca         1 U26      -0.141500
      9 C04         41.0650     3.4200    28.9040 ca         1 U26      -0.074000
     10 C05         40.1040     3.6140    29.9160 ca         1 U26      -0.124300
     11 C08         39.3820     0.3090    30.0820 c5         1 U26       0.012000
     12 C09         38.0230    -0.4280    30.0450 c          1 U26       0.560000
     13 C12         37.7620     1.5730    31.2220 c          1 U26       0.614000
     14 C14         35.7610     0.1040    30.9570 ca         1 U26      -0.074000
     15 C18         33.8090    -0.3620    32.3160 ca         1 U26      -0.095000
     16 C19         33.1930    -0.5670    33.5660 ca         1 U26      -0.079000
     17 C23         35.1940    -0.0960    32.2390 ca         1 U26       0.005000
     18 C25         39.2690     5.5770    28.7300 ca         1 U26      -0.141500
     19 N07         39.0970     1.5410    30.8450 n          1 U26      -0.430800
     20 N11         37.1590     0.4040    30.7670 n          1 U26      -0.224000
     21 N16         33.5930    -0.2520    29.9000 nb         1 U26      -0.656000
     22 O13         37.2140     2.4800    31.8300 o          1 U26      -0.517000
     23 H1          35.3220     0.1470    28.8250 h4         1 U26       0.027100
     24 H2          31.9850    -0.6300    31.1590 h4         1 U26       0.023100
     25 H3          33.4840    -0.6780    35.7080 ha         1 U26       0.118000
     26 H4          35.9330    -0.2400    35.5840 ha         1 U26       0.116000
     27 H5          37.0290     0.1150    33.4010 ha         1 U26       0.119000
     28 H6          38.4550     4.8510    30.5970 ha         1 U26       0.116500
     29 H7          41.8690     4.1540    27.0290 ha         1 U26       0.135000
     30 H8          41.7610     2.5850    28.9620 ha         1 U26       0.116500
     31 H9          41.0240     2.2400    31.2940 h1         1 U26       0.066200
     32 H10         39.7170     3.1990    31.9950 h1         1 U26       0.066200
     33 H11         40.1230    -0.3260    30.5840 h1         1 U26       0.084200
     34 H12         39.7030     0.5250    29.0550 h1         1 U26       0.084200
     35 H13         32.1250    -0.7680    33.6270 ha         1 U26       0.119000
     36 H14         38.5760     6.4110    28.6580 ha         1 U26       0.135000
     37 O10         37.7270    -1.4940    29.5180 o          1 U26      -0.484000
     38 C06         40.0270     2.6540    31.0940 c3         1 U26       0.181300
     39 F01         40.2920     6.2250    26.6780 f          1 U26      -0.181000
@<TRIPOS>BOND
     1     1    14 ar  
     2     1    21 ar  
     3     1    23 1   
     4     2    15 ar  
     5     2    21 ar  
     6     2    24 1   
     7     3     4 ar  
     8     3    16 ar  
     9     3    25 1   
    10     4     5 ar  
    11     4    26 1   
    12     5    17 ar  
    13     5    27 1   
    14     6    10 ar  
    15     6    18 ar  
    16     6    28 1   
    17     7     8 ar  
    18     7    18 ar  
    19     7    39 1   
    20     8     9 ar  
    21     8    29 1   
    22     9    10 ar  
    23     9    30 1   
    24    10    38 1   
    25    11    12 1   
    26    11    19 1   
    27    11    33 1   
    28    11    34 1   
    29    12    20 1   
    30    12    37 2   
    31    13    19 1   
    32    13    20 1   
    33    13    22 2   
    34    14    17 ar  
    35    14    20 1   
    36    15    16 ar  
    37    15    17 ar  
    38    16    35 1   
    39    18    36 1   
    40    19    38 1   
    41    31    38 1   
    42    32    38 1   
@<TRIPOS>SUBSTRUCTURE
     1 U26         1 TEMP              0 ****  ****    0 ROOT
