@<TRIPOS>MOLECULE
U27
   59    63     1     0     0
SMALL
No Charge or Current Charge


@<TRIPOS>ATOM
      1 C10         19.1760   -21.3520    -2.1450 c5         1 U27      -0.117400
      2 C17         18.1970   -25.9740    -0.2050 cc         1 U27       0.495300
      3 C20         18.7940   -29.6380     0.5430 c3         1 U27      -0.104100
      4 C21         19.5920   -30.4700    -0.4590 ca         1 U27      -0.113300
      5 C22         19.3470   -30.3450    -1.8410 ca         1 U27      -0.102000
      6 C24         21.0310   -32.0410    -2.3100 ca         1 U27      -0.096000
      7 C26         20.5620   -31.3890    -0.0110 ca         1 U27      -0.102000
      8 C01         23.9850   -29.5490    -0.3170 c3         1 U27      -0.111100
      9 C02         23.2170   -28.6050    -1.2490 c          1 U27       0.607100
     10 N03         23.1780   -27.2960    -0.8270 ns         1 U27      -0.494400
     11 C04         22.4890   -26.2390    -1.3720 cc         1 U27       0.502300
     12 N05         21.6640   -26.3280    -2.4030 nd         1 U27      -0.273000
     13 N06         21.0700   -25.1150    -2.6930 nd         1 U27      -0.422000
     14 C07         21.4540   -24.1650    -1.8550 cc         1 U27       0.718300
     15 N08         20.9810   -22.8630    -1.9050 nh         1 U27      -0.759300
     16 C09         19.8110   -22.6130    -2.7920 c5         1 U27       0.239800
     17 C11         19.5130   -21.4700    -0.6280 c5         1 U27       0.172300
     18 C12         20.9390   -22.1100    -0.6150 c5         1 U27       0.202800
     19 O13         18.5280   -22.3050     0.0610 os         1 U27      -0.437300
     20 C14         18.3720   -23.6390    -0.2080 cc         1 U27       0.595700
     21 N15         17.3120   -24.0220    -0.8960 nd         1 U27      -0.396000
     22 N16         17.2360   -25.4050    -0.9250 nd         1 U27      -0.360000
     23 C19         19.1670   -28.1500     0.4860 c          1 U27       0.607100
     24 C23         20.0650   -31.1270    -2.7630 ca         1 U27      -0.105500
     25 C25         21.2770   -32.1730    -0.9330 ca         1 U27      -0.105500
     26 O27         20.2050   -27.7270     0.9700 o          1 U27      -0.577100
     27 S28         19.2490   -24.8650     0.6360 ss         1 U27      -0.157800
     28 S29         22.6500   -24.6550    -0.6960 ss         1 U27      -0.378800
     29 O30         22.7010   -28.9960    -2.2840 o          1 U27      -0.540100
     30 C31         25.3480   -29.8980    -0.9040 ca         1 U27      -0.072300
     31 C32         25.4840   -30.9990    -1.7730 ca         1 U27      -0.091000
     32 C33         26.7380   -31.3190    -2.3200 ca         1 U27      -0.109000
     33 C34         27.8640   -30.5410    -2.0020 ca         1 U27      -0.103000
     34 C35         27.7340   -29.4420    -1.1370 ca         1 U27      -0.109000
     35 C36         26.4800   -29.1200    -0.5900 ca         1 U27      -0.091000
     36 H1          19.6340   -20.4480    -2.5610 hc         1 U27       0.067700
     37 H2          18.1000   -21.2800    -2.3390 hc         1 U27       0.067700
     38 H3          17.7260   -29.7610     0.3290 hc         1 U27       0.087200
     39 H4          18.9910   -29.9930     1.5600 hc         1 U27       0.087200
     40 H5          18.5980   -29.6450    -2.2060 ha         1 U27       0.116500
     41 H6          21.5860   -32.6450    -3.0230 ha         1 U27       0.119000
     42 H7          20.7620   -31.5010     1.0530 ha         1 U27       0.116500
     43 H8          24.1210   -29.0810     0.6640 hc         1 U27       0.065200
     44 H9          23.4000   -30.4660    -0.1910 hc         1 U27       0.065200
     45 H10         23.7000   -27.1060     0.0150 hn         1 U27       0.330500
     46 H11         20.1130   -22.4230    -3.8310 h1         1 U27       0.074700
     47 H12         19.1010   -23.4510    -2.8050 h1         1 U27       0.074700
     48 H13         19.5160   -20.4850    -0.1410 h1         1 U27       0.093700
     49 H14         21.0870   -22.7230     0.2830 h1         1 U27       0.065700
     50 H15         21.7100   -21.3290    -0.6070 h1         1 U27       0.065700
     51 H16         17.4680   -27.8340    -0.5640 hn         1 U27       0.357500
     52 H17         19.8730   -31.0230    -3.8290 ha         1 U27       0.119500
     53 H18         22.0240   -32.8810    -0.5810 ha         1 U27       0.119500
     54 H19         24.6160   -31.6040    -2.0280 ha         1 U27       0.110500
     55 H20         26.8370   -32.1700    -2.9910 ha         1 U27       0.112500
     56 H21         28.8350   -30.7890    -2.4260 ha         1 U27       0.112000
     57 H22         28.6050   -28.8380    -0.8910 ha         1 U27       0.112500
     58 H23         26.3900   -28.2670     0.0780 ha         1 U27       0.110500
     59 N18         18.2390   -27.3460    -0.1320 ns         1 U27      -0.464400
@<TRIPOS>BOND
     1     1    16 1   
     2     1    17 1   
     3     1    36 1   
     4     1    37 1   
     5     2    22 2   
     6     2    27 1   
     7     2    59 1   
     8     3     4 1   
     9     3    23 1   
    10     3    38 1   
    11     3    39 1   
    12     4     5 ar  
    13     4     7 ar  
    14     5    24 ar  
    15     5    40 1   
    16     6    24 ar  
    17     6    25 ar  
    18     6    41 1   
    19     7    25 ar  
    20     7    42 1   
    21     8     9 1   
    22     8    30 1   
    23     8    43 1   
    24     8    44 1   
    25     9    10 1   
    26     9    29 2   
    27    10    11 1   
    28    10    45 1   
    29    11    12 2   
    30    11    28 1   
    31    12    13 1   
    32    13    14 2   
    33    14    15 1   
    34    14    28 1   
    35    15    16 1   
    36    15    18 1   
    37    16    46 1   
    38    16    47 1   
    39    17    18 1   
    40    17    19 1   
    41    17    48 1   
    42    18    49 1   
    43    18    50 1   
    44    19    20 1   
    45    20    21 2   
    46    20    27 1   
    47    21    22 1   
    48    23    26 2   
    49    23    59 1   
    50    24    52 1   
    51    25    53 1   
    52    30    31 ar  
    53    30    35 ar  
    54    31    32 ar  
    55    31    54 1   
    56    32    33 ar  
    57    32    55 1   
    58    33    34 ar  
    59    33    56 1   
    60    34    35 ar  
    61    34    57 1   
    62    35    58 1   
    63    51    59 1   
@<TRIPOS>SUBSTRUCTURE
     1 U27         1 TEMP              0 ****  ****    0 ROOT
