@<TRIPOS>MOLECULE
U27
   59    63     1     0     0
SMALL
abcg2


@<TRIPOS>ATOM
      1 C10         19.7910   -22.7010    -2.1470 c5         1 U27      -0.117400
      2 C17         17.3330   -26.6660    -0.0180 cc         1 U27       0.495300
      3 C20         14.7430   -29.1020     1.1670 c3         1 U27      -0.104100
      4 C21         15.3710   -30.2880     0.4900 ca         1 U27      -0.113300
      5 C22         15.0160   -30.6400    -0.8100 ca         1 U27      -0.102000
      6 C24         16.5900   -32.4600    -0.7760 ca         1 U27      -0.096000
      7 C26         16.3450   -31.0370     1.1490 ca         1 U27      -0.102000
      8 C01         27.2660   -28.7550    -1.6070 c3         1 U27      -0.111100
      9 C02         26.3310   -27.6390    -2.0300 c          1 U27       0.607100
     10 N03         25.0250   -27.8680    -1.7030 ns         1 U27      -0.494400
     11 C04         24.0280   -26.9470    -1.9830 cc         1 U27       0.502300
     12 N05         23.4520   -26.8140    -3.1200 nd         1 U27      -0.273000
     13 N06         22.5250   -25.8430    -3.1660 nd         1 U27      -0.422000
     14 C07         22.3870   -25.2240    -2.0170 cc         1 U27       0.718300
     15 N08         21.5240   -24.2370    -1.8020 nh         1 U27      -0.759300
     16 C09         20.5850   -23.8130    -2.8280 c5         1 U27       0.239800
     17 C11         20.0100   -22.8460    -0.6390 c5         1 U27       0.172300
     18 C12         21.3050   -23.6460    -0.5000 c5         1 U27       0.202800
     19 O13         18.8950   -23.3890     0.0890 os         1 U27      -0.437300
     20 C14         18.4780   -24.6200    -0.1120 cc         1 U27       0.595700
     21 N15         18.9540   -25.4850    -0.9310 nd         1 U27      -0.396000
     22 N16         18.2910   -26.6680    -0.8780 nd         1 U27      -0.360000
     23 C19         15.5260   -27.8100     1.0930 c          1 U27       0.607100
     24 C23         15.6220   -31.7200    -1.4400 ca         1 U27      -0.105500
     25 C25         16.9500   -32.1160     0.5210 ca         1 U27      -0.105500
     26 O27         15.2560   -26.8440     1.7820 o          1 U27      -0.577100
     27 S28         17.1300   -25.1740     0.8440 ss         1 U27      -0.157800
     28 S29         23.4540   -25.8170    -0.7800 ss         1 U27      -0.378800
     29 O30         26.6870   -26.6360    -2.6080 o          1 U27      -0.540100
     30 C31         28.6930   -28.4790    -1.9700 ca         1 U27      -0.072300
     31 C32         29.2080   -28.9110    -3.1880 ca         1 U27      -0.091000
     32 C33         30.5250   -28.6440    -3.5370 ca         1 U27      -0.109000
     33 C34         31.3450   -27.9370    -2.6680 ca         1 U27      -0.103000
     34 C35         30.8400   -27.5020    -1.4490 ca         1 U27      -0.109000
     35 C36         29.5220   -27.7720    -1.1050 ca         1 U27      -0.091000
     36 H1          20.1850   -21.7290    -2.4430 hc         1 U27       0.067700
     37 H2          18.7350   -22.7130    -2.4170 hc         1 U27       0.067700
     38 H3          13.7600   -28.8900     0.7380 hc         1 U27       0.087200
     39 H4          14.5730   -29.3050     2.2260 hc         1 U27       0.087200
     40 H5          14.2610   -30.0670    -1.3340 ha         1 U27       0.116500
     41 H6          17.0610   -33.3020    -1.2660 ha         1 U27       0.119000
     42 H7          16.6320   -30.7740     2.1600 ha         1 U27       0.116500
     43 H8          27.1580   -28.9040    -0.5280 hc         1 U27       0.065200
     44 H9          26.9210   -29.6820    -2.0740 hc         1 U27       0.065200
     45 H10         24.7850   -28.6860    -1.1620 hn         1 U27       0.330500
     46 H11         21.1180   -23.4500    -3.7080 h1         1 U27       0.074700
     47 H12         19.9550   -24.6480    -3.1310 h1         1 U27       0.074700
     48 H13         20.1210   -21.8710    -0.1720 h1         1 U27       0.093700
     49 H14         21.2390   -24.4030     0.2870 h1         1 U27       0.065700
     50 H15         22.1260   -22.9720    -0.2370 h1         1 U27       0.065700
     51 H16         16.7610   -28.5780    -0.3720 hn         1 U27       0.357500
     52 H17         15.3350   -31.9820    -2.4500 ha         1 U27       0.119500
     53 H18         17.7020   -32.6900     1.0470 ha         1 U27       0.119500
     54 H19         28.5760   -29.4680    -3.8700 ha         1 U27       0.110500
     55 H20         30.9100   -28.9910    -4.4870 ha         1 U27       0.112500
     56 H21         32.3730   -27.7300    -2.9350 ha         1 U27       0.112000
     57 H22         31.4730   -26.9530    -0.7640 ha         1 U27       0.112500
     58 H23         29.1380   -27.4320    -0.1500 ha         1 U27       0.110500
     59 N18         16.5420   -27.7660     0.1900 ns         1 U27      -0.464400
@<TRIPOS>BOND
     1     1    16 1   
     2     1    17 1   
     3     1    36 1   
     4     1    37 1   
     5     2    22 2   
     6     2    27 1   
     7     2    59 1   
     8     3     4 1   
     9     3    23 1   
    10     3    38 1   
    11     3    39 1   
    12     4     5 ar  
    13     4     7 ar  
    14     5    24 ar  
    15     5    40 1   
    16     6    24 ar  
    17     6    25 ar  
    18     6    41 1   
    19     7    25 ar  
    20     7    42 1   
    21     8     9 1   
    22     8    30 1   
    23     8    43 1   
    24     8    44 1   
    25     9    10 1   
    26     9    29 2   
    27    10    11 1   
    28    10    45 1   
    29    11    12 2   
    30    11    28 1   
    31    12    13 1   
    32    13    14 2   
    33    14    15 1   
    34    14    28 1   
    35    15    16 1   
    36    15    18 1   
    37    16    46 1   
    38    16    47 1   
    39    17    18 1   
    40    17    19 1   
    41    17    48 1   
    42    18    49 1   
    43    18    50 1   
    44    19    20 1   
    45    20    21 2   
    46    20    27 1   
    47    21    22 1   
    48    23    26 2   
    49    23    59 1   
    50    24    52 1   
    51    25    53 1   
    52    30    31 ar  
    53    30    35 ar  
    54    31    32 ar  
    55    31    54 1   
    56    32    33 ar  
    57    32    55 1   
    58    33    34 ar  
    59    33    56 1   
    60    34    35 ar  
    61    34    57 1   
    62    35    58 1   
    63    51    59 1   
@<TRIPOS>SUBSTRUCTURE
     1 U27         1 TEMP              0 ****  ****    0 ROOT
