@<TRIPOS>MOLECULE
U29
   28    28     1     0     0
SMALL
No Charge or Current Charge


@<TRIPOS>ATOM
      1 C4          14.9910    -5.8470   -26.5560 c5         1 U29      -0.090400
      2 C5          13.5280    -5.6890   -27.0600 c5         1 U29       0.121700
      3 C6          12.6350    -4.8830   -26.0840 c3         1 U29      -0.104100
      4 C8          11.4800    -8.9650   -23.6610 c3         1 U29       0.150900
      5 N           13.1260    -7.1130   -27.1550 n          1 U29      -0.411800
      6 C1          12.1670    -7.6170   -28.0620 c          1 U29       0.602100
      7 C2          13.9810    -8.0200   -26.3290 c5         1 U29       0.054700
      8 C3          14.8760    -7.0160   -25.5420 c5         1 U29      -0.081400
      9 H1          15.6610    -6.1100   -27.3830 hc         1 U29       0.057700
     10 H2          15.3850    -4.9300   -26.1020 hc         1 U29       0.057700
     11 H3          13.5210    -5.1870   -28.0360 h1         1 U29       0.057700
     12 H4          13.0340    -3.8730   -25.9360 hc         1 U29       0.045700
     13 H5          11.6150    -4.7760   -26.4680 hc         1 U29       0.045700
     14 H6          12.5630    -5.3610   -25.1000 hc         1 U29       0.045700
     15 H7          10.7920    -8.2790   -23.1510 h1         1 U29       0.049700
     16 H8          10.8810    -9.7360   -24.1630 h1         1 U29       0.049700
     17 H9          12.1050    -9.4500   -22.9000 h1         1 U29       0.049700
     18 H10         10.6460    -7.1590   -29.5770 hc         1 U29       0.061367
     19 H11         10.8530    -5.9190   -28.2800 hc         1 U29       0.061367
     20 H12         12.0440    -6.0180   -29.5050 hc         1 U29       0.061367
     21 H13         14.5910    -8.6580   -26.9820 h1         1 U29       0.092700
     22 H14         14.4140    -6.6860   -24.6050 hc         1 U29       0.062700
     23 H15         15.8510    -7.4450   -25.2820 hc         1 U29       0.062700
     24 C7          13.2150    -8.9560   -25.3420 c          1 U29       0.593100
     25 O1          13.3770   -10.1660   -25.2390 o          1 U29      -0.480000
     26 C           11.3590    -6.6440   -28.9240 c3         1 U29      -0.168100
     27 O           11.9790    -8.8220   -28.1580 o          1 U29      -0.610100
     28 O2          12.2910    -8.2480   -24.6090 os         1 U29      -0.437100
@<TRIPOS>BOND
     1     1     2 1   
     2     1     8 1   
     3     1     9 1   
     4     1    10 1   
     5     2     3 1   
     6     2     5 1   
     7     2    11 1   
     8     3    12 1   
     9     3    13 1   
    10     3    14 1   
    11     4    15 1   
    12     4    16 1   
    13     4    17 1   
    14     4    28 1   
    15     5     6 1   
    16     5     7 1   
    17     6    26 1   
    18     6    27 2   
    19     7     8 1   
    20     7    21 1   
    21     7    24 1   
    22     8    22 1   
    23     8    23 1   
    24    18    26 1   
    25    19    26 1   
    26    20    26 1   
    27    24    25 2   
    28    24    28 1   
@<TRIPOS>SUBSTRUCTURE
     1 U29         1 TEMP              0 ****  ****    0 ROOT
