@<TRIPOS>MOLECULE
U29
   28    28     1     0     0
SMALL
abcg2


@<TRIPOS>ATOM
      1 C4          14.9750    -5.8270   -26.5430 c5         1 U29      -0.090400
      2 C5          13.5200    -5.6840   -27.0040 c5         1 U29       0.121700
      3 C6          12.6560    -4.9020   -26.0180 c3         1 U29      -0.104100
      4 C8          11.3920    -8.9620   -23.8190 c3         1 U29       0.150900
      5 N           13.1050    -7.0960   -27.1190 n          1 U29      -0.411800
      6 C1          12.1650    -7.6070   -27.9390 c          1 U29       0.602100
      7 C2          13.9470    -7.9980   -26.3390 c5         1 U29       0.054700
      8 C3          14.9530    -7.0620   -25.6370 c5         1 U29      -0.081400
      9 H1          15.6170    -6.0090   -27.4070 hc         1 U29       0.057700
     10 H2          15.3330    -4.9350   -26.0300 hc         1 U29       0.057700
     11 H3          13.4670    -5.2170   -27.9860 h1         1 U29       0.057700
     12 H4          12.9860    -3.8620   -25.9860 hc         1 U29       0.045700
     13 H5          11.6070    -4.9180   -26.3150 hc         1 U29       0.045700
     14 H6          12.7290    -5.3210   -25.0140 hc         1 U29       0.045700
     15 H7          10.5850    -8.2990   -23.5220 h1         1 U29       0.049700
     16 H8          10.9940    -9.8800   -24.2490 h1         1 U29       0.049700
     17 H9          12.0270    -9.1990   -22.9660 h1         1 U29       0.049700
     18 H10         10.6610    -7.2060   -29.3830 hc         1 U29       0.061367
     19 H11         10.9240    -5.8640   -28.2480 hc         1 U29       0.061367
     20 H12         12.0930    -6.1650   -29.5310 hc         1 U29       0.061367
     21 H13         14.4600    -8.6920   -27.0070 h1         1 U29       0.092700
     22 H14         14.5920    -6.8000   -24.6420 hc         1 U29       0.062700
     23 H15         15.9250    -7.5370   -25.5300 hc         1 U29       0.062700
     24 C7          13.1940    -8.8560   -25.3410 c          1 U29       0.593100
     25 O1          13.5600    -9.9640   -25.0180 o          1 U29      -0.480000
     26 C           11.4110    -6.6490   -28.8280 c3         1 U29      -0.168100
     27 O           11.9440    -8.8250   -27.9620 o          1 U29      -0.610100
     28 O2          12.1420    -8.2340   -24.8110 os         1 U29      -0.437100
@<TRIPOS>BOND
     1     1     2 1   
     2     1     8 1   
     3     1     9 1   
     4     1    10 1   
     5     2     3 1   
     6     2     5 1   
     7     2    11 1   
     8     3    12 1   
     9     3    13 1   
    10     3    14 1   
    11     4    15 1   
    12     4    16 1   
    13     4    17 1   
    14     4    28 1   
    15     5     6 1   
    16     5     7 1   
    17     6    26 1   
    18     6    27 2   
    19     7     8 1   
    20     7    21 1   
    21     7    24 1   
    22     8    22 1   
    23     8    23 1   
    24    18    26 1   
    25    19    26 1   
    26    20    26 1   
    27    24    25 2   
    28    24    28 1   
@<TRIPOS>SUBSTRUCTURE
     1 U29         1 TEMP              0 ****  ****    0 ROOT
