@<TRIPOS>MOLECULE
U2A
   27    27     1     0     0
SMALL
abcg2


@<TRIPOS>ATOM
      1 S2          27.2130    33.6630    34.9120 sh         1 U2A      -0.413800
      2 C2          28.4960    33.5710    33.6220 c6         1 U2A       0.034300
      3 C1          28.5320    34.9110    32.8970 c6         1 U2A       0.409300
      4 O1          27.2990    35.1720    32.3510 os         1 U2A      -0.427000
      5 C7          27.1190    36.5100    31.9260 c3         1 U2A       0.148900
      6 O5          29.4800    34.8530    31.8660 os         1 U2A      -0.468000
      7 C3          29.8870    33.3150    34.1960 c6         1 U2A       0.130300
      8 O3          29.9760    32.0520    34.8140 oh         1 U2A      -0.665000
      9 C4          30.9300    33.3740    33.0800 c6         1 U2A       0.131300
     10 O4          32.2310    33.2820    33.6010 oh         1 U2A      -0.717000
     11 C5          30.8070    34.6990    32.3250 c6         1 U2A       0.184300
     12 C6          31.7240    34.7550    31.1220 c3         1 U2A       0.172600
     13 O6          31.6050    36.0200    30.5200 oh         1 U2A      -0.711000
     14 H2          28.2330    32.7870    32.9060 h1         1 U2A       0.106700
     15 H1          28.8180    35.7050    33.6150 h2         1 U2A       0.032700
     16 H14         26.0770    36.6190    31.6330 h1         1 U2A       0.039367
     17 H15         27.3300    37.2150    32.7370 h1         1 U2A       0.039367
     18 H16         27.7510    36.7640    31.0730 h1         1 U2A       0.039367
     19 H3          30.1110    34.1160    34.9140 h1         1 U2A       0.056700
     20 HO3         29.9690    32.1640    35.7680 ho         1 U2A       0.455000
     21 H4          30.7270    32.5530    32.3720 h1         1 U2A       0.059700
     22 HO4         32.2910    32.4610    34.1020 ho         1 U2A       0.520000
     23 H5          31.0660    35.5190    33.0150 h1         1 U2A       0.057700
     24 H61         31.4540    33.9450    30.4300 h1         1 U2A       0.036700
     25 H62         32.7480    34.5610    31.4600 h1         1 U2A       0.036700
     26 HO6         32.2040    36.0490    29.7690 ho         1 U2A       0.505000
     27 HS2         27.4910    32.4930    35.4990 hs         1 U2A       0.206800
@<TRIPOS>BOND
     1     1     2 1   
     2     1    27 1   
     3     2     3 1   
     4     2     7 1   
     5     2    14 1   
     6     3     4 1   
     7     3     6 1   
     8     3    15 1   
     9     4     5 1   
    10     5    16 1   
    11     5    17 1   
    12     5    18 1   
    13     6    11 1   
    14     7     8 1   
    15     7     9 1   
    16     7    19 1   
    17     8    20 1   
    18     9    10 1   
    19     9    11 1   
    20     9    21 1   
    21    10    22 1   
    22    11    12 1   
    23    11    23 1   
    24    12    13 1   
    25    12    24 1   
    26    12    25 1   
    27    13    26 1   
@<TRIPOS>SUBSTRUCTURE
     1 U2A         1 TEMP              0 ****  ****    0 ROOT
