@<TRIPOS>MOLECULE
U2A
   27    27     1     0     0
SMALL
No Charge or Current Charge


@<TRIPOS>ATOM
      1 S2          27.3410    33.6300    35.2150 sh         1 U2A      -0.413800
      2 C2          28.5350    33.6030    33.7510 c6         1 U2A       0.034300
      3 C1          28.5310    34.9670    32.9980 c6         1 U2A       0.409300
      4 O1          27.2300    35.2290    32.4450 os         1 U2A      -0.427000
      5 C7          27.0440    36.5230    31.8470 c3         1 U2A       0.148900
      6 O5          29.4820    34.9260    31.9160 os         1 U2A      -0.468000
      7 C3          29.9780    33.2850    34.2420 c6         1 U2A       0.130300
      8 O3          30.0480    31.9910    34.8720 oh         1 U2A      -0.665000
      9 C4          30.9830    33.3490    33.0550 c6         1 U2A       0.131300
     10 O4          32.3180    33.1060    33.5390 oh         1 U2A      -0.717000
     11 C5          30.8560    34.7300    32.3390 c6         1 U2A       0.184300
     12 C6          31.7820    34.8410    31.0820 c3         1 U2A       0.172600
     13 O6          31.6360    36.0890    30.3710 oh         1 U2A      -0.711000
     14 H2          28.2180    32.8260    33.0410 h1         1 U2A       0.106700
     15 H1          28.8000    35.7730    33.6980 h2         1 U2A       0.032700
     16 H14         26.0150    36.6300    31.4830 h1         1 U2A       0.039367
     17 H15         27.2330    37.3210    32.5780 h1         1 U2A       0.039367
     18 H16         27.7220    36.6650    30.9950 h1         1 U2A       0.039367
     19 H3          30.2640    34.0630    34.9670 h1         1 U2A       0.056700
     20 HO3         29.6150    32.0760    35.7510 ho         1 U2A       0.455000
     21 H4          30.7060    32.5680    32.3300 h1         1 U2A       0.059700
     22 HO4         32.2200    32.3640    34.1850 ho         1 U2A       0.520000
     23 H5          31.1300    35.5330    33.0390 h1         1 U2A       0.057700
     24 H61         31.5520    33.9990    30.4150 h1         1 U2A       0.036700
     25 H62         32.8230    34.7200    31.4110 h1         1 U2A       0.036700
     26 HO6         32.2060    36.0310    29.5680 ho         1 U2A       0.505000
     27 HS2         27.3000    32.2870    35.3920 hs         1 U2A       0.206800
@<TRIPOS>BOND
     1     1     2 1   
     2     1    27 1   
     3     2     3 1   
     4     2     7 1   
     5     2    14 1   
     6     3     4 1   
     7     3     6 1   
     8     3    15 1   
     9     4     5 1   
    10     5    16 1   
    11     5    17 1   
    12     5    18 1   
    13     6    11 1   
    14     7     8 1   
    15     7     9 1   
    16     7    19 1   
    17     8    20 1   
    18     9    10 1   
    19     9    11 1   
    20     9    21 1   
    21    10    22 1   
    22    11    12 1   
    23    11    23 1   
    24    12    13 1   
    25    12    24 1   
    26    12    25 1   
    27    13    26 1   
@<TRIPOS>SUBSTRUCTURE
     1 U2A         1 TEMP              0 ****  ****    0 ROOT
