@<TRIPOS>MOLECULE
U2B
   40    44     1     0     0
SMALL
No Charge or Current Charge


@<TRIPOS>ATOM
      1 C10         13.7400    13.0870    21.2630 ca         1 U2B      -0.112000
      2 C13          9.2780    13.9250    21.6540 c          1 U2B       0.570000
      3 C17          7.7930    14.2680    18.9060 ca         1 U2B       0.348900
      4 C20          5.3100    15.3410    19.3990 ca         1 U2B      -0.095000
      5 C21          4.0190    15.8630    19.6070 ca         1 U2B      -0.079000
      6 C22          3.7100    16.5130    20.8130 ca         1 U2B      -0.110000
      7 C24          5.9780    16.1200    21.6100 ca         1 U2B      -0.096000
      8 C02          9.2630    16.2340    21.4380 c          1 U2B       0.617000
      9 C04         10.4050    14.5320    22.5530 c5         1 U2B       0.084700
     10 C05         10.1220    14.3210    24.0930 c5         1 U2B      -0.074400
     11 C06         11.5440    14.2380    24.7740 c5         1 U2B      -0.033100
     12 C07         12.4050    13.7850    23.6200 ca         1 U2B      -0.068300
     13 C08         13.7050    13.2630    23.7000 ca         1 U2B      -0.100000
     14 C09         14.3740    12.9100    22.5110 ca         1 U2B      -0.093000
     15 C11         12.4360    13.6150    21.1990 ca         1 U2B      -0.070000
     16 C12         11.7840    13.9540    22.3970 ca         1 U2B      -0.114300
     17 C16          7.5840    14.9340    20.1330 ca         1 U2B      -0.071000
     18 C19          5.6270    14.6720    18.2010 ca         1 U2B       0.370900
     19 C23          4.6870    16.6380    21.8140 ca         1 U2B      -0.086000
     20 C25          6.3030    15.4760    20.3950 ca         1 U2B       0.003000
     21 N03         10.2750    15.9730    22.3120 ns         1 U2B      -0.510900
     22 N15          8.6720    15.0360    21.0740 n          1 U2B      -0.227000
     23 N18          6.8440    14.1370    17.9510 nb         1 U2B      -0.657000
     24 O01          8.9590    17.3460    21.0410 o          1 U2B      -0.529000
     25 O14          8.9720    12.7550    21.4560 o          1 U2B      -0.480000
     26 H1          14.2610    12.8160    20.3470 ha         1 U2B       0.120000
     27 H3           3.2540    15.7630    18.8390 ha         1 U2B       0.119000
     28 H4           2.7120    16.9150    20.9750 ha         1 U2B       0.118000
     29 H5           6.7110    16.2200    22.4060 ha         1 U2B       0.119000
     30 H6           9.4850    15.0970    24.5350 hc         1 U2B       0.070200
     31 H7           9.5950    13.3720    24.2480 hc         1 U2B       0.070200
     32 H8          11.5580    13.5390    25.6190 hc         1 U2B       0.060700
     33 H9          11.8670    15.2160    25.1490 hc         1 U2B       0.060700
     34 H10         14.1910    13.1360    24.6650 ha         1 U2B       0.119000
     35 H11         15.3820    12.5040    22.5560 ha         1 U2B       0.117000
     36 H12         11.9460    13.7570    20.2380 ha         1 U2B       0.122000
     37 H13          4.8810    14.5520    17.4160 h4         1 U2B       0.022100
     38 H14          4.4440    17.1340    22.7510 ha         1 U2B       0.116000
     39 H15         10.8600    16.7220    22.6620 hn         1 U2B       0.352500
     40 H2           8.7650    13.8350    18.6730 h4         1 U2B       0.027100
@<TRIPOS>BOND
     1     1    14 ar  
     2     1    15 ar  
     3     1    26 1   
     4     2     9 1   
     5     2    22 1   
     6     2    25 2   
     7     3    17 ar  
     8     3    23 ar  
     9     3    40 1   
    10     4     5 ar  
    11     4    18 ar  
    12     4    20 ar  
    13     5     6 ar  
    14     5    27 1   
    15     6    19 ar  
    16     6    28 1   
    17     7    19 ar  
    18     7    20 ar  
    19     7    29 1   
    20     8    21 1   
    21     8    22 1   
    22     8    24 2   
    23     9    10 1   
    24     9    16 1   
    25     9    21 1   
    26    10    11 1   
    27    10    30 1   
    28    10    31 1   
    29    11    12 1   
    30    11    32 1   
    31    11    33 1   
    32    12    13 ar  
    33    12    16 ar  
    34    13    14 ar  
    35    13    34 1   
    36    14    35 1   
    37    15    16 ar  
    38    15    36 1   
    39    17    20 ar  
    40    17    22 1   
    41    18    23 ar  
    42    18    37 1   
    43    19    38 1   
    44    21    39 1   
@<TRIPOS>SUBSTRUCTURE
     1 U2B         1 TEMP              0 ****  ****    0 ROOT
