@<TRIPOS>MOLECULE
U2B
   40    44     1     0     0
SMALL
abcg2


@<TRIPOS>ATOM
      1 C10         13.4810    12.9310    21.2920 ca         1 U2B      -0.112000
      2 C13          9.1970    14.1570    21.7850 c          1 U2B       0.570000
      3 C17          7.9590    14.6220    18.7430 ca         1 U2B       0.348900
      4 C20          5.3890    15.2990    19.4160 ca         1 U2B      -0.095000
      5 C21          4.0550    15.6390    19.7350 ca         1 U2B      -0.079000
      6 C22          3.7410    16.0850    20.9920 ca         1 U2B      -0.110000
      7 C24          6.0530    15.8870    21.6960 ca         1 U2B      -0.096000
      8 C02          9.5400    16.3520    21.1390 c          1 U2B       0.617000
      9 C04         10.3480    14.7160    22.6230 c5         1 U2B       0.084700
     10 C05         10.0910    14.5830    24.1460 c5         1 U2B      -0.074400
     11 C06         11.4750    14.3580    24.7880 c5         1 U2B      -0.033100
     12 C07         12.2940    13.7870    23.6590 ca         1 U2B      -0.068300
     13 C08         13.5370    13.1650    23.7040 ca         1 U2B      -0.100000
     14 C09         14.1220    12.7350    22.5160 ca         1 U2B      -0.093000
     15 C11         12.2400    13.5600    21.2440 ca         1 U2B      -0.070000
     16 C12         11.6600    13.9750    22.4340 ca         1 U2B      -0.114300
     17 C16          7.7150    15.0660    20.0150 ca         1 U2B      -0.071000
     18 C19          5.7650    14.8300    18.1340 ca         1 U2B       0.370900
     19 C23          4.7480    16.2090    21.9750 ca         1 U2B      -0.086000
     20 C25          6.4020    15.4240    20.4080 ca         1 U2B       0.003000
     21 N03         10.4060    16.0910    22.1360 ns         1 U2B      -0.510900
     22 N15          8.7870    15.1640    20.9440 n          1 U2B      -0.227000
     23 N18          6.9920    14.5020    17.7990 nb         1 U2B      -0.657000
     24 O01          9.3820    17.3760    20.5030 o          1 U2B      -0.529000
     25 O14          8.7290    13.0430    21.8490 o          1 U2B      -0.480000
     26 H1          13.9490    12.5890    20.3780 ha         1 U2B       0.120000
     27 H3           3.2920    15.5390    18.9720 ha         1 U2B       0.119000
     28 H4           2.7200    16.3460    21.2390 ha         1 U2B       0.118000
     29 H5           6.8160    15.9850    22.4570 ha         1 U2B       0.119000
     30 H6           9.5620    15.4530    24.5300 hc         1 U2B       0.070200
     31 H7           9.4690    13.7010    24.3020 hc         1 U2B       0.070200
     32 H8          11.4220    13.6910    25.6490 hc         1 U2B       0.060700
     33 H9          11.9120    15.2990    25.1340 hc         1 U2B       0.060700
     34 H10         14.0420    13.0110    24.6500 ha         1 U2B       0.119000
     35 H11         15.0860    12.2420    22.5410 ha         1 U2B       0.117000
     36 H12         11.7410    13.7180    20.2950 ha         1 U2B       0.122000
     37 H13          4.9990    14.7320    17.3700 h4         1 U2B       0.022100
     38 H14          4.4840    16.5640    22.9630 ha         1 U2B       0.116000
     39 H15         11.1350    16.7400    22.3880 hn         1 U2B       0.352500
     40 H2           8.9660    14.3500    18.4520 h4         1 U2B       0.027100
@<TRIPOS>BOND
     1     1    14 ar  
     2     1    15 ar  
     3     1    26 1   
     4     2     9 1   
     5     2    22 1   
     6     2    25 2   
     7     3    17 ar  
     8     3    23 ar  
     9     3    40 1   
    10     4     5 ar  
    11     4    18 ar  
    12     4    20 ar  
    13     5     6 ar  
    14     5    27 1   
    15     6    19 ar  
    16     6    28 1   
    17     7    19 ar  
    18     7    20 ar  
    19     7    29 1   
    20     8    21 1   
    21     8    22 1   
    22     8    24 2   
    23     9    10 1   
    24     9    16 1   
    25     9    21 1   
    26    10    11 1   
    27    10    30 1   
    28    10    31 1   
    29    11    12 1   
    30    11    32 1   
    31    11    33 1   
    32    12    13 ar  
    33    12    16 ar  
    34    13    14 ar  
    35    13    34 1   
    36    14    35 1   
    37    15    16 ar  
    38    15    36 1   
    39    17    20 ar  
    40    17    22 1   
    41    18    23 ar  
    42    18    37 1   
    43    19    38 1   
    44    21    39 1   
@<TRIPOS>SUBSTRUCTURE
     1 U2B         1 TEMP              0 ****  ****    0 ROOT
