@<TRIPOS>MOLECULE
U2C
   42    44     1     0     0
SMALL
No Charge or Current Charge


@<TRIPOS>ATOM
      1 C1         -11.1960    15.7220   -26.7050 c3         1 U2C      -0.090100
      2 C10         -7.6830    20.7760   -28.4330 ca         1 U2C       0.087000
      3 C11         -6.5780    19.0230   -27.4460 ca         1 U2C       0.404900
      4 C12         -5.1370    17.2390   -26.2750 c3         1 U2C       0.209500
      5 C13         -5.8310    17.2240   -24.9290 cc         1 U2C       0.110300
      6 C14         -5.8450    18.1400   -23.9110 cd         1 U2C      -0.184000
      7 C15         -6.6740    17.6190   -22.8970 cd         1 U2C      -0.188000
      8 C16         -7.1320    16.4060   -23.3340 cc         1 U2C       0.120900
      9 C17         -9.0210    15.5770   -27.9970 c          1 U2C       0.624100
     10 C2          -9.8580    16.4350   -27.0150 c3         1 U2C      -0.134700
     11 C3         -10.1000    17.9110   -27.4820 c3         1 U2C      -0.138700
     12 C4          -8.8480    18.7760   -27.6970 ca         1 U2C       0.184300
     13 C5          -8.9020    20.0640   -28.2900 ca         1 U2C      -0.191000
     14 C6         -10.1130    20.6490   -28.7290 ca         1 U2C      -0.054000
     15 C7         -10.1070    21.9260   -29.3130 ca         1 U2C       0.091000
     16 C8          -8.9030    22.6280   -29.4630 ca         1 U2C      -0.069000
     17 C9          -7.6980    22.0540   -29.0230 ca         1 U2C      -0.101000
     18 N1          -6.5230    20.2400   -28.0060 nb         1 U2C      -0.259000
     19 N3          -7.6750    18.2700   -27.2710 nb         1 U2C      -0.222000
     20 N4          -9.2950    15.7600   -29.3490 ns         1 U2C      -0.393400
     21 O1          -6.6180    16.1450   -24.5850 os         1 U2C      -0.230000
     22 O2          -8.3940    15.2660   -30.3710 oh         1 U2C      -0.424100
     23 O3          -8.1250    14.8370   -27.6110 o          1 U2C      -0.575100
     24 Cl1        -11.6160    22.6480   -29.8580 cl         1 U2C      -0.200000
     25 H1         -11.7620    16.2690   -25.9410 hc         1 U2C       0.043367
     26 H2         -11.8190    15.6460   -27.6050 hc         1 U2C       0.043367
     27 H3         -11.0150    14.7070   -26.3270 hc         1 U2C       0.043367
     28 H4          -5.5020    16.3890   -26.8700 h1         1 U2C       0.084700
     29 H5          -4.0620    17.0800   -26.1090 h1         1 U2C       0.084700
     30 H6          -5.3210    19.0910   -23.9020 ha         1 U2C       0.140000
     31 H7          -6.9120    18.0870   -21.9470 ha         1 U2C       0.139000
     32 H8          -7.7870    15.6700   -22.8870 h4         1 U2C       0.052100
     33 H9          -9.3030    16.4510   -26.0690 hc         1 U2C       0.101700
     34 H10        -10.7270    18.4060   -26.7300 hc         1 U2C       0.062700
     35 H11        -10.7000    17.8930   -28.4000 hc         1 U2C       0.062700
     36 H12        -11.0640    20.1350   -28.6220 ha         1 U2C       0.125000
     37 H13         -8.9020    23.6170   -29.9160 ha         1 U2C       0.132000
     38 H14         -6.7680    22.6060   -29.1370 ha         1 U2C       0.138000
     39 H15         -4.5610    19.1270   -27.1510 hn         1 U2C       0.511000
     40 H16         -9.9270    16.5060   -29.6310 hn         1 U2C       0.333500
     41 H17         -8.9880    14.7770   -30.9880 ho         1 U2C       0.441000
     42 N2          -5.3640    18.5120   -27.0070 nu         1 U2C      -0.917100
@<TRIPOS>BOND
     1     1    10 1   
     2     1    25 1   
     3     1    26 1   
     4     1    27 1   
     5     2    13 ar  
     6     2    17 ar  
     7     2    18 ar  
     8     3    18 ar  
     9     3    19 ar  
    10     3    42 1   
    11     4     5 1   
    12     4    28 1   
    13     4    29 1   
    14     4    42 1   
    15     5     6 2   
    16     5    21 1   
    17     6     7 1   
    18     6    30 1   
    19     7     8 2   
    20     7    31 1   
    21     8    21 1   
    22     8    32 1   
    23     9    10 1   
    24     9    20 1   
    25     9    23 2   
    26    10    11 1   
    27    10    33 1   
    28    11    12 1   
    29    11    34 1   
    30    11    35 1   
    31    12    13 ar  
    32    12    19 ar  
    33    13    14 ar  
    34    14    15 ar  
    35    14    36 1   
    36    15    16 ar  
    37    15    24 1   
    38    16    17 ar  
    39    16    37 1   
    40    17    38 1   
    41    20    22 1   
    42    20    40 1   
    43    22    41 1   
    44    39    42 1   
@<TRIPOS>SUBSTRUCTURE
     1 U2C         1 TEMP              0 ****  ****    0 ROOT
