@<TRIPOS>MOLECULE
U2C
   42    44     1     0     0
SMALL
abcg2


@<TRIPOS>ATOM
      1 C1         -11.2980    15.8290   -26.9590 c3         1 U2C      -0.090100
      2 C10         -7.7180    20.7810   -28.3640 ca         1 U2C       0.087000
      3 C11         -6.6540    19.0070   -27.4460 ca         1 U2C       0.404900
      4 C12         -5.4530    17.1270   -26.3960 c3         1 U2C       0.209500
      5 C13         -5.8840    17.1690   -24.9660 cc         1 U2C       0.110300
      6 C14         -6.1730    18.1850   -24.1180 cd         1 U2C      -0.184000
      7 C15         -6.5030    17.5750   -22.8660 cd         1 U2C      -0.188000
      8 C16         -6.3860    16.2430   -23.0560 cc         1 U2C       0.120900
      9 C17         -9.0000    15.6850   -27.9050 c          1 U2C       0.624100
     10 C2          -9.9510    16.5470   -27.0880 c3         1 U2C      -0.134700
     11 C3         -10.1580    17.9670   -27.6070 c3         1 U2C      -0.138700
     12 C4          -8.9090    18.7850   -27.7480 ca         1 U2C       0.184300
     13 C5          -8.9550    20.1020   -28.2980 ca         1 U2C      -0.191000
     14 C6         -10.1330    20.7200   -28.7590 ca         1 U2C      -0.054000
     15 C7         -10.0670    21.9820   -29.2790 ca         1 U2C       0.091000
     16 C8          -8.8450    22.6770   -29.3530 ca         1 U2C      -0.069000
     17 C9          -7.6950    22.0880   -28.9030 ca         1 U2C      -0.101000
     18 N1          -6.5710    20.2240   -27.9330 nb         1 U2C      -0.259000
     19 N3          -7.7880    18.2670   -27.3380 nb         1 U2C      -0.222000
     20 N4          -9.1060    15.8340   -29.2390 ns         1 U2C      -0.393400
     21 O1          -6.0100    15.9860   -24.3300 os         1 U2C      -0.230000
     22 O2          -8.2410    15.1900   -30.0720 oh         1 U2C      -0.424100
     23 O3          -8.2670    14.8580   -27.3900 o          1 U2C      -0.575100
     24 CL1        -11.5020    22.7550   -29.8670 cl         1 U2C      -0.200000
     25 H1         -11.9510    16.3710   -26.2740 hc         1 U2C       0.043367
     26 H2         -11.8060    15.7560   -27.9210 hc         1 U2C       0.043367
     27 H3         -11.1700    14.8210   -26.5660 hc         1 U2C       0.043367
     28 H4          -6.0610    16.4070   -26.9470 h1         1 U2C       0.084700
     29 H5          -4.4200    16.7800   -26.4700 h1         1 U2C       0.084700
     30 H6          -6.1560    19.2380   -24.3480 ha         1 U2C       0.140000
     31 H7          -6.7890    18.0700   -21.9530 ha         1 U2C       0.139000
     32 H8          -6.5320    15.3890   -22.4130 h4         1 U2C       0.052100
     33 H9          -9.4960    16.6060   -26.0980 hc         1 U2C       0.101700
     34 H10        -10.8220    18.4870   -26.9080 hc         1 U2C       0.062700
     35 H11        -10.7110    17.9680   -28.5520 hc         1 U2C       0.062700
     36 H12        -11.0820    20.2030   -28.7060 ha         1 U2C       0.125000
     37 H13         -8.8190    23.6750   -29.7680 ha         1 U2C       0.132000
     38 H14         -6.7520    22.6150   -28.9560 ha         1 U2C       0.138000
     39 H15         -4.6860    18.9850   -27.0390 hn         1 U2C       0.511000
     40 H16         -9.6410    16.5650   -29.6820 hn         1 U2C       0.333500
     41 H17         -8.6750    14.3660   -30.3290 ho         1 U2C       0.441000
     42 N2          -5.5180    18.4190   -27.0200 nu         1 U2C      -0.917100
@<TRIPOS>BOND
     1     1    10 1   
     2     1    25 1   
     3     1    26 1   
     4     1    27 1   
     5     2    13 ar  
     6     2    17 ar  
     7     2    18 ar  
     8     3    18 ar  
     9     3    19 ar  
    10     3    42 1   
    11     4     5 1   
    12     4    28 1   
    13     4    29 1   
    14     4    42 1   
    15     5     6 2   
    16     5    21 1   
    17     6     7 1   
    18     6    30 1   
    19     7     8 2   
    20     7    31 1   
    21     8    21 1   
    22     8    32 1   
    23     9    10 1   
    24     9    20 1   
    25     9    23 2   
    26    10    11 1   
    27    10    33 1   
    28    11    12 1   
    29    11    34 1   
    30    11    35 1   
    31    12    13 ar  
    32    12    19 ar  
    33    13    14 ar  
    34    14    15 ar  
    35    14    36 1   
    36    15    16 ar  
    37    15    24 1   
    38    16    17 ar  
    39    16    37 1   
    40    17    38 1   
    41    20    22 1   
    42    20    40 1   
    43    22    41 1   
    44    39    42 1   
@<TRIPOS>SUBSTRUCTURE
     1 U2C         1 TEMP              0 ****  ****    0 ROOT
