@<TRIPOS>MOLECULE
U2D
   53    53     1     0     0
SMALL
No Charge or Current Charge


@<TRIPOS>ATOM
      1 C1         -28.4090    11.3080    28.3120 c6         1 U2D       0.363300
      2 C2         -28.9840     9.8520    28.4920 c6         1 U2D       0.126300
      3 C3         -30.5360     9.8990    28.6940 c6         1 U2D       0.133300
      4 C4         -30.9130    11.1350    29.5530 c6         1 U2D       0.152300
      5 C5         -30.5060    12.4440    28.7900 c6         1 U2D       0.142300
      6 C6         -30.0750    13.5850    29.7690 c3         1 U2D       0.144600
      7 CAX        -30.8110    15.5290    28.5030 c          1 U2D       0.592100
      8 CAY        -30.3050    16.8060    27.8230 c3         1 U2D      -0.134400
      9 CAZ        -30.5460    16.8480    26.2890 c3         1 U2D      -0.066400
     10 CBA        -29.8410    15.7380    25.4680 c3         1 U2D      -0.073400
     11 CBB        -30.6470    14.4230    25.3410 c3         1 U2D      -0.087400
     12 CBC        -29.8910    13.3200    24.5690 c3         1 U2D      -0.069400
     13 CBD        -30.6860    11.9960    24.4830 c3         1 U2D      -0.078400
     14 CBE        -29.9090    10.8220    23.8370 c3         1 U2D      -0.069400
     15 CBF        -29.4570    11.0380    22.3710 c3         1 U2D      -0.074400
     16 CBG        -30.6120    11.2730    21.3760 c3         1 U2D      -0.089100
     17 O11        -31.9960    15.2960    28.6970 o          1 U2D      -0.484000
     18 O2         -28.6780     9.0420    27.3400 oh         1 U2D      -0.710000
     19 O3         -31.0240     8.6760    29.2870 oh         1 U2D      -0.729000
     20 O4         -32.3100    11.1110    29.8790 oh         1 U2D      -0.705000
     21 O5         -29.4280    12.1870    27.8360 os         1 U2D      -0.469000
     22 O6         -29.7800    14.8060    29.0490 os         1 U2D      -0.439100
     23 H1         -28.0090    11.6840    29.2650 h2         1 U2D       0.017700
     24 H2         -28.5180     9.4230    29.3910 h1         1 U2D       0.047700
     25 H3         -30.9980    10.0380    27.7020 h1         1 U2D       0.075700
     26 H4         -30.3270    11.0790    30.4830 h1         1 U2D       0.038700
     27 H5         -31.3800    12.7900    28.2220 h1         1 U2D       0.108700
     28 H61        -29.1890    13.2550    30.3250 h1         1 U2D       0.069700
     29 H62        -30.8750    13.7490    30.5030 h1         1 U2D       0.069700
     30 H64        -29.2270    16.9070    27.9990 hc         1 U2D       0.069200
     31 HAY        -30.8260    17.6590    28.2710 hc         1 U2D       0.069200
     32 H65        -30.1860    17.8180    25.9260 hc         1 U2D       0.051700
     33 HAZ        -31.6240    16.8310    26.0840 hc         1 U2D       0.051700
     34 H66        -28.8560    15.5310    25.9040 hc         1 U2D       0.037700
     35 HBA        -29.6570    16.1210    24.4570 hc         1 U2D       0.037700
     36 HBB        -31.5970    14.6310    24.8330 hc         1 U2D       0.046200
     37 H67        -30.8980    14.0430    26.3340 hc         1 U2D       0.046200
     38 HBC        -28.9300    13.1310    25.0620 hc         1 U2D       0.034700
     39 H68        -29.6690    13.6830    23.5580 hc         1 U2D       0.034700
     40 H69        -31.6220    12.1660    23.9370 hc         1 U2D       0.043700
     41 HBD        -30.9750    11.6930    25.4970 hc         1 U2D       0.043700
     42 HBE        -30.5340     9.9220    23.8830 hc         1 U2D       0.037200
     43 H7A        -29.0230    10.6100    24.4480 hc         1 U2D       0.037200
     44 H7B        -28.8980    10.1510    22.0490 hc         1 U2D       0.033700
     45 HBF        -28.7540    11.8780    22.3160 hc         1 U2D       0.033700
     46 H7G        -30.2250    11.3280    20.3510 hc         1 U2D       0.029700
     47 H7C        -31.3390    10.4540    21.4240 hc         1 U2D       0.029700
     48 HBG        -31.1320    12.2140    21.5900 hc         1 U2D       0.029700
     49 HO2        -28.0170     9.6110    26.8630 ho         1 U2D       0.526000
     50 HO3        -30.6060     7.9450    28.7700 ho         1 U2D       0.525000
     51 HO4        -32.5150    10.1460    29.9600 ho         1 U2D       0.526000
     52 O1         -27.3960    11.3200    27.3180 oh         1 U2D      -0.705000
     53 HO1        -27.3740    12.2580    27.0250 ho         1 U2D       0.527000
@<TRIPOS>BOND
     1     1     2 1   
     2     1    21 1   
     3     1    23 1   
     4     1    52 1   
     5     2     3 1   
     6     2    18 1   
     7     2    24 1   
     8     3     4 1   
     9     3    19 1   
    10     3    25 1   
    11     4     5 1   
    12     4    20 1   
    13     4    26 1   
    14     5     6 1   
    15     5    21 1   
    16     5    27 1   
    17     6    22 1   
    18     6    28 1   
    19     6    29 1   
    20     7     8 1   
    21     7    17 2   
    22     7    22 1   
    23     8     9 1   
    24     8    30 1   
    25     8    31 1   
    26     9    10 1   
    27     9    32 1   
    28     9    33 1   
    29    10    11 1   
    30    10    34 1   
    31    10    35 1   
    32    11    12 1   
    33    11    36 1   
    34    11    37 1   
    35    12    13 1   
    36    12    38 1   
    37    12    39 1   
    38    13    14 1   
    39    13    40 1   
    40    13    41 1   
    41    14    15 1   
    42    14    42 1   
    43    14    43 1   
    44    15    16 1   
    45    15    44 1   
    46    15    45 1   
    47    16    46 1   
    48    16    47 1   
    49    16    48 1   
    50    18    49 1   
    51    19    50 1   
    52    20    51 1   
    53    52    53 1   
@<TRIPOS>SUBSTRUCTURE
     1 U2D         1 TEMP              0 ****  ****    0 ROOT
