@<TRIPOS>MOLECULE
U2D
   53    53     1     0     0
SMALL
bcc


@<TRIPOS>ATOM
      1 C1         -28.4150    11.2050    28.8600 c6         1 U2D       0.316900
      2 C2         -29.0130     9.8230    28.5680 c6         1 U2D       0.103100
      3 C3         -30.5350     9.9360    28.4390 c6         1 U2D       0.110100
      4 C4         -31.0490    11.1170    29.2550 c6         1 U2D       0.129100
      5 C5         -30.4470    12.4030    28.6720 c6         1 U2D       0.119100
      6 C6         -30.4690    13.5440    29.6790 c3         1 U2D       0.121400
      7 CAX        -30.8140    15.4620    28.3270 c          1 U2D       0.641100
      8 CAY        -30.1250    16.6220    27.6550 c3         1 U2D      -0.134400
      9 CAZ        -30.5550    16.8320    26.2010 c3         1 U2D      -0.066400
     10 CBA        -29.9100    15.8820    25.1930 c3         1 U2D      -0.073400
     11 CBB        -30.1840    14.4020    25.4340 c3         1 U2D      -0.087400
     12 CBC        -29.6750    13.4920    24.3230 c3         1 U2D      -0.069400
     13 CBD        -29.9630    12.0200    24.6030 c3         1 U2D      -0.078400
     14 CBE        -29.3850    11.0580    23.5680 c3         1 U2D      -0.069400
     15 CBF        -29.8940    11.2530    22.1410 c3         1 U2D      -0.074400
     16 CBG        -31.4010    11.0820    21.9990 c3         1 U2D      -0.089100
     17 O11        -31.9910    15.2190    28.2250 o          1 U2D      -0.533000
     18 O2         -28.5330     9.2560    27.3770 oh         1 U2D      -0.587800
     19 O3         -31.2080     8.7830    28.8860 oh         1 U2D      -0.606800
     20 O4         -32.4440    11.2510    29.1820 oh         1 U2D      -0.582800
     21 O5         -29.1390    12.2040    28.1750 os         1 U2D      -0.422600
     22 O6         -29.9800    14.7440    29.0780 os         1 U2D      -0.415900
     23 H1         -28.4770    11.3890    29.9450 h2         1 U2D       0.017700
     24 H2         -28.7870     9.1830    29.4340 h1         1 U2D       0.047700
     25 H3         -30.7670    10.1360    27.3820 h1         1 U2D       0.075700
     26 H4         -30.7320    10.9870    30.3030 h1         1 U2D       0.038700
     27 H5         -31.0580    12.6740    27.8040 h1         1 U2D       0.108700
     28 H61        -29.7900    13.3390    30.5080 h1         1 U2D       0.069700
     29 H62        -31.4710    13.6800    30.0870 h1         1 U2D       0.069700
     30 H64        -29.0410    16.5190    27.7290 hc         1 U2D       0.069200
     31 HAY        -30.3920    17.5120    28.2350 hc         1 U2D       0.069200
     32 H65        -30.2950    17.8560    25.9240 hc         1 U2D       0.051700
     33 HAZ        -31.6440    16.7670    26.1310 hc         1 U2D       0.051700
     34 H66        -28.8270    16.0480    25.1800 hc         1 U2D       0.037700
     35 HBA        -30.2700    16.1550    24.1960 hc         1 U2D       0.037700
     36 HBB        -31.2610    14.2440    25.5610 hc         1 U2D       0.046200
     37 H67        -29.7120    14.0870    26.3690 hc         1 U2D       0.046200
     38 HBC        -28.5950    13.6350    24.1960 hc         1 U2D       0.034700
     39 H68        -30.1330    13.7940    23.3750 hc         1 U2D       0.034700
     40 H69        -31.0460    11.8770    24.6840 hc         1 U2D       0.043700
     41 HBD        -29.5560    11.7560    25.5840 hc         1 U2D       0.043700
     42 HBE        -29.6020    10.0320    23.8830 hc         1 U2D       0.037200
     43 H7A        -28.2940    11.1500    23.5720 hc         1 U2D       0.037200
     44 H7B        -29.3900    10.5340    21.4890 hc         1 U2D       0.033700
     45 HBF        -29.6050    12.2420    21.7720 hc         1 U2D       0.033700
     46 H7G        -31.7100    11.1520    20.9550 hc         1 U2D       0.029700
     47 H7C        -31.7240    10.1090    22.3740 hc         1 U2D       0.029700
     48 HBG        -31.9520    11.8450    22.5510 hc         1 U2D       0.029700
     49 HO2        -27.5730     9.2110    27.4260 ho         1 U2D       0.427000
     50 HO3        -31.1060     8.0900    28.2270 ho         1 U2D       0.426000
     51 HO4        -32.8370    10.4320    29.5010 ho         1 U2D       0.427000
     52 O1         -27.1090    11.2310    28.4280 oh         1 U2D      -0.582800
     53 HO1        -26.6370    11.9490    28.8620 ho         1 U2D       0.428000
@<TRIPOS>BOND
     1     1     2 1   
     2     1    21 1   
     3     1    23 1   
     4     1    52 1   
     5     2     3 1   
     6     2    18 1   
     7     2    24 1   
     8     3     4 1   
     9     3    19 1   
    10     3    25 1   
    11     4     5 1   
    12     4    20 1   
    13     4    26 1   
    14     5     6 1   
    15     5    21 1   
    16     5    27 1   
    17     6    22 1   
    18     6    28 1   
    19     6    29 1   
    20     7     8 1   
    21     7    17 2   
    22     7    22 1   
    23     8     9 1   
    24     8    30 1   
    25     8    31 1   
    26     9    10 1   
    27     9    32 1   
    28     9    33 1   
    29    10    11 1   
    30    10    34 1   
    31    10    35 1   
    32    11    12 1   
    33    11    36 1   
    34    11    37 1   
    35    12    13 1   
    36    12    38 1   
    37    12    39 1   
    38    13    14 1   
    39    13    40 1   
    40    13    41 1   
    41    14    15 1   
    42    14    42 1   
    43    14    43 1   
    44    15    16 1   
    45    15    44 1   
    46    15    45 1   
    47    16    46 1   
    48    16    47 1   
    49    16    48 1   
    50    18    49 1   
    51    19    50 1   
    52    20    51 1   
    53    52    53 1   
@<TRIPOS>SUBSTRUCTURE
     1 U2D         1 TEMP              0 ****  ****    0 ROOT
