@<TRIPOS>MOLECULE
U2E
   65    67     1     0     0
SMALL
No Charge or Current Charge


@<TRIPOS>ATOM
      1 C01        -39.5730    45.2290   -20.8930 c3         1 U2E      -0.098100
      2 C02        -38.1270    44.7280   -21.0400 c3         1 U2E       0.171600
      3 C04        -36.9930    42.5380   -20.8290 ca         1 U2E       0.125100
      4 C05        -37.1190    41.1610   -20.5570 ca         1 U2E      -0.064000
      5 C07        -38.9340    39.4360   -19.9160 c          1 U2E       0.630700
      6 C09        -40.4330    39.3790   -19.6870 ca         1 U2E      -0.216600
      7 C10        -41.2640    40.5120   -19.8580 ca         1 U2E       0.005000
      8 C11        -42.6580    40.4370   -19.6390 ca         1 U2E      -0.194600
      9 C12        -43.2320    39.2130   -19.2370 ca         1 U2E       0.231100
     10 C14        -45.2550    37.9470   -18.5750 c3         1 U2E       0.159600
     11 C15        -46.7620    38.2660   -18.4140 c3         1 U2E       0.168800
     12 C17        -47.3110    36.4460   -16.7790 c6         1 U2E       0.168800
     13 C18        -48.2310    35.2150   -16.4820 c6         1 U2E       0.156300
     14 C20        -50.0100    36.2150   -17.8550 c6         1 U2E       0.156300
     15 C21        -49.0870    37.4460   -18.1470 c6         1 U2E       0.168800
     16 C22        -42.4070    38.0810   -19.0680 ca         1 U2E      -0.236000
     17 C23        -41.0250    38.1630   -19.2930 ca         1 U2E       0.013000
     18 C24        -43.5070    41.6660   -19.8410 c          1 U2E       0.613700
     19 C27        -43.4940    44.0810   -19.8460 c3         1 U2E       0.153900
     20 C28        -35.9720    40.3350   -20.5930 ca         1 U2E      -0.071000
     21 C29        -34.6990    40.8760   -20.8980 ca         1 U2E      -0.191600
     22 C30        -34.5950    42.2580   -21.1660 ca         1 U2E      -0.039000
     23 C31        -35.7300    43.0830   -21.1330 ca         1 U2E      -0.194000
     24 C32        -33.4510    40.0120   -20.9430 c          1 U2E       0.589700
     25 C33        -33.5500    38.5130   -20.6530 c3         1 U2E      -0.196100
     26 N06        -38.4270    40.6820   -20.2590 ns         1 U2E      -0.135000
     27 N16        -47.6310    37.0980   -18.0930 n3         1 U2E      -0.736600
     28 N19        -49.6820    35.5500   -16.5620 n7         1 U2E      -0.863400
     29 O03        -38.1380    43.3140   -20.7850 os         1 U2E      -0.373100
     30 O08        -38.2380    38.4330   -19.7980 o          1 U2E      -0.596100
     31 O13        -44.5900    39.1550   -18.9880 os         1 U2E      -0.321100
     32 O25        -44.6540    41.6390   -20.2690 o          1 U2E      -0.467000
     33 O26        -42.8140    42.8320   -19.6270 os         1 U2E      -0.449100
     34 O34        -32.3590    40.5000   -21.2110 o          1 U2E      -0.534100
     35 H1         -39.6210    46.3090   -21.0770 hc         1 U2E       0.049700
     36 H2         -40.2310    44.7270   -21.6120 hc         1 U2E       0.049700
     37 H3         -39.9470    45.0360   -19.8800 hc         1 U2E       0.049700
     38 H4         -37.4840    45.2500   -20.3190 h1         1 U2E       0.039200
     39 H5         -37.7670    44.9400   -22.0550 h1         1 U2E       0.039200
     40 H6         -40.8410    41.4620   -20.1770 ha         1 U2E       0.132000
     41 H7         -45.1320    37.1600   -19.3300 h1         1 U2E       0.046200
     42 H8         -44.8460    37.5920   -17.6210 h1         1 U2E       0.046200
     43 H9         -46.8680    39.0350   -17.6370 h1         1 U2E       0.053200
     44 H10        -47.0990    38.7180   -19.3570 h1         1 U2E       0.053200
     45 H12        -47.4230    37.1730   -15.9610 h1         1 U2E       0.039450
     46 H13        -48.0050    34.4230   -17.2110 h1         1 U2E       0.037450
     47 H14        -47.9990    34.8170   -15.4830 h1         1 U2E       0.037450
     48 H15        -51.0610    36.5390   -17.8480 h1         1 U2E       0.037450
     49 H16        -49.8950    35.4880   -18.6730 h1         1 U2E       0.037450
     50 H17        -49.3140    38.2330   -17.4120 h1         1 U2E       0.039450
     51 H18        -49.3460    37.8490   -19.1370 h1         1 U2E       0.039450
     52 H19        -42.8170    37.1250   -18.7580 ha         1 U2E       0.129000
     53 H20        -40.4150    37.2710   -19.1530 ha         1 U2E       0.138000
     54 H21        -42.8240    44.9230   -19.6330 h1         1 U2E       0.048033
     55 H22        -43.8270    44.1680   -20.8890 h1         1 U2E       0.048033
     56 H23        -44.3710    44.1700   -19.1910 h1         1 U2E       0.048033
     57 H24        -36.0680    39.2750   -20.3880 ha         1 U2E       0.153000
     58 H25        -33.6300    42.7030   -21.4030 ha         1 U2E       0.135000
     59 H26        -35.6080    44.1410   -21.3460 ha         1 U2E       0.121000
     60 H27        -32.5800    38.0070   -20.7170 hc         1 U2E       0.063700
     61 H28        -34.0120    38.3680   -19.6700 hc         1 U2E       0.063700
     62 H29        -34.2810    38.0630   -21.3340 hc         1 U2E       0.063700
     63 H30        -39.1250    41.4110   -20.3040 hn         1 U2E       0.172000
     64 H32        -50.2340    34.6860   -16.4770 hn         1 U2E       0.413000
     65 H11        -46.2670    36.1010   -16.7610 h1         1 U2E       0.039450
@<TRIPOS>BOND
     1     1     2 1   
     2     1    35 1   
     3     1    36 1   
     4     1    37 1   
     5     2    29 1   
     6     2    38 1   
     7     2    39 1   
     8     3     4 ar  
     9     3    23 ar  
    10     3    29 1   
    11     4    20 ar  
    12     4    26 1   
    13     5     6 1   
    14     5    26 1   
    15     5    30 2   
    16     6     7 ar  
    17     6    17 ar  
    18     7     8 ar  
    19     7    40 1   
    20     8     9 ar  
    21     8    18 1   
    22     9    16 ar  
    23     9    31 1   
    24    10    11 1   
    25    10    31 1   
    26    10    41 1   
    27    10    42 1   
    28    11    27 1   
    29    11    43 1   
    30    11    44 1   
    31    12    13 1   
    32    12    27 1   
    33    12    45 1   
    34    12    65 1   
    35    13    28 1   
    36    13    46 1   
    37    13    47 1   
    38    14    15 1   
    39    14    28 1   
    40    14    48 1   
    41    14    49 1   
    42    15    27 1   
    43    15    50 1   
    44    15    51 1   
    45    16    17 ar  
    46    16    52 1   
    47    17    53 1   
    48    18    32 2   
    49    18    33 1   
    50    19    33 1   
    51    19    54 1   
    52    19    55 1   
    53    19    56 1   
    54    20    21 ar  
    55    20    57 1   
    56    21    22 ar  
    57    21    24 1   
    58    22    23 ar  
    59    22    58 1   
    60    23    59 1   
    61    24    25 1   
    62    24    34 2   
    63    25    60 1   
    64    25    61 1   
    65    25    62 1   
    66    26    63 1   
    67    28    64 1   
@<TRIPOS>SUBSTRUCTURE
     1 U2E         1 TEMP              0 ****  ****    0 ROOT
