@<TRIPOS>MOLECULE
U2E
   65    67     1     0     0
SMALL
bcc


@<TRIPOS>ATOM
      1 C01        -39.5070    44.9720   -22.3000 c3         1 U2E      -0.098100
      2 C02        -38.1150    44.4010   -22.1840 c3         1 U2E       0.148400
      3 C04        -37.1140    42.3930   -21.3490 ca         1 U2E       0.125100
      4 C05        -37.3270    41.1430   -20.7260 ca         1 U2E       0.028600
      5 C07        -39.1440    39.6510   -19.9410 c          1 U2E       0.697700
      6 C09        -40.6070    39.6380   -19.6560 ca         1 U2E      -0.216600
      7 C10        -41.3440    40.7730   -19.3420 ca         1 U2E      -0.013000
      8 C11        -42.7020    40.7080   -19.0460 ca         1 U2E      -0.194600
      9 C12        -43.3470    39.4550   -19.0500 ca         1 U2E       0.231100
     10 C14        -45.2980    38.1560   -18.6520 c3         1 U2E       0.136400
     11 C15        -46.7320    38.4210   -18.2270 c3         1 U2E       0.168800
     12 C17        -47.1740    36.4590   -16.8850 c6         1 U2E       0.168800
     13 C18        -47.8670    35.1090   -16.8850 c6         1 U2E       0.156300
     14 C20        -49.5850    35.9940   -18.2820 c6         1 U2E       0.156300
     15 C21        -48.8920    37.3450   -18.2810 c6         1 U2E       0.168800
     16 C22        -42.6030    38.3120   -19.3570 ca         1 U2E      -0.254000
     17 C23        -41.2580    38.4060   -19.6460 ca         1 U2E      -0.005000
     18 C24        -43.4490    41.9600   -18.7550 c          1 U2E       0.662700
     19 C27        -43.2170    44.1890   -18.0320 c3         1 U2E       0.130700
     20 C28        -36.2320    40.3430   -20.4400 ca         1 U2E      -0.089000
     21 C29        -34.9360    40.7510   -20.7670 ca         1 U2E      -0.191600
     22 C30        -34.7450    41.9800   -21.3870 ca         1 U2E      -0.057000
     23 C31        -35.8250    42.7960   -21.6750 ca         1 U2E      -0.212000
     24 C32        -33.7600    39.8940   -20.4690 c          1 U2E       0.589700
     25 C33        -33.9920    38.5720   -19.7880 c3         1 U2E      -0.196100
     26 N06        -38.6530    40.8200   -20.4250 ns         1 U2E      -0.461100
     27 N16        -47.4580    37.1740   -18.1180 n3         1 U2E      -0.736600
     28 N19        -49.2970    35.3000   -17.0410 n7         1 U2E      -0.808200
     29 O03        -38.2180    43.1120   -21.5830 os         1 U2E      -0.349900
     30 O08        -38.4650    38.6560   -19.7500 o          1 U2E      -0.596100
     31 O13        -44.6370    39.4130   -18.7300 os         1 U2E      -0.297900
     32 O25        -44.6280    42.1250   -18.9380 o          1 U2E      -0.516000
     33 O26        -42.6460    42.9050   -18.2790 os         1 U2E      -0.425900
     34 O34        -32.6400    40.2570   -20.7680 o          1 U2E      -0.534100
     35 H1         -39.4520    45.9600   -22.7540 hc         1 U2E       0.049700
     36 H2         -40.1440    44.3490   -22.9290 hc         1 U2E       0.049700
     37 H3         -39.9770    45.0770   -21.3220 hc         1 U2E       0.049700
     38 H4         -37.4830    45.0470   -21.5680 h1         1 U2E       0.039200
     39 H5         -37.6480    44.3140   -23.1690 h1         1 U2E       0.039200
     40 H6         -40.8610    41.7400   -19.3070 ha         1 U2E       0.150000
     41 H7         -45.2920    37.6540   -19.6250 h1         1 U2E       0.046200
     42 H8         -44.7830    37.5090   -17.9350 h1         1 U2E       0.046200
     43 H9         -46.7480    39.0040   -17.2920 h1         1 U2E       0.053200
     44 H10        -47.2100    39.0370   -18.9930 h1         1 U2E       0.053200
     45 H12        -47.5020    37.0360   -16.0030 h1         1 U2E       0.039450
     46 H13        -47.4290    34.4900   -17.6840 h1         1 U2E       0.037450
     47 H14        -47.6690    34.6050   -15.9370 h1         1 U2E       0.037450
     48 H15        -50.6630    36.1420   -18.3720 h1         1 U2E       0.037450
     49 H16        -49.2550    35.4340   -19.1710 h1         1 U2E       0.037450
     50 H17        -49.3230    37.9730   -17.4830 h1         1 U2E       0.039450
     51 H18        -49.0860    37.8470   -19.2310 h1         1 U2E       0.039450
     52 H19        -43.0660    37.3370   -19.3670 ha         1 U2E       0.147000
     53 H20        -40.7080    37.5030   -19.8720 ha         1 U2E       0.156000
     54 H21        -42.4080    44.8050   -17.6510 h1         1 U2E       0.048033
     55 H22        -43.6110    44.6330   -18.9460 h1         1 U2E       0.048033
     56 H23        -44.0120    44.1330   -17.2880 h1         1 U2E       0.048033
     57 H24        -36.3920    39.3910   -19.9620 ha         1 U2E       0.171000
     58 H25        -33.7490    42.3090   -21.6500 ha         1 U2E       0.153000
     59 H26        -35.6510    43.7490   -22.1570 ha         1 U2E       0.139000
     60 H27        -33.0460    38.0560   -19.6380 hc         1 U2E       0.063700
     61 H28        -34.4730    38.7090   -18.8180 hc         1 U2E       0.063700
     62 H29        -34.6490    37.9350   -20.3820 hc         1 U2E       0.063700
     63 H30        -39.3220    41.5340   -20.6690 hn         1 U2E       0.338500
     64 H32        -49.7670    34.4040   -17.0320 hn         1 U2E       0.357800
     65 H11        -46.0990    36.3020   -16.7840 h1         1 U2E       0.039450
@<TRIPOS>BOND
     1     1     2 1   
     2     1    35 1   
     3     1    36 1   
     4     1    37 1   
     5     2    29 1   
     6     2    38 1   
     7     2    39 1   
     8     3     4 ar  
     9     3    23 ar  
    10     3    29 1   
    11     4    20 ar  
    12     4    26 1   
    13     5     6 1   
    14     5    26 1   
    15     5    30 2   
    16     6     7 ar  
    17     6    17 ar  
    18     7     8 ar  
    19     7    40 1   
    20     8     9 ar  
    21     8    18 1   
    22     9    16 ar  
    23     9    31 1   
    24    10    11 1   
    25    10    31 1   
    26    10    41 1   
    27    10    42 1   
    28    11    27 1   
    29    11    43 1   
    30    11    44 1   
    31    12    13 1   
    32    12    27 1   
    33    12    45 1   
    34    12    65 1   
    35    13    28 1   
    36    13    46 1   
    37    13    47 1   
    38    14    15 1   
    39    14    28 1   
    40    14    48 1   
    41    14    49 1   
    42    15    27 1   
    43    15    50 1   
    44    15    51 1   
    45    16    17 ar  
    46    16    52 1   
    47    17    53 1   
    48    18    32 2   
    49    18    33 1   
    50    19    33 1   
    51    19    54 1   
    52    19    55 1   
    53    19    56 1   
    54    20    21 ar  
    55    20    57 1   
    56    21    22 ar  
    57    21    24 1   
    58    22    23 ar  
    59    22    58 1   
    60    23    59 1   
    61    24    25 1   
    62    24    34 2   
    63    25    60 1   
    64    25    61 1   
    65    25    62 1   
    66    26    63 1   
    67    28    64 1   
@<TRIPOS>SUBSTRUCTURE
     1 U2E         1 TEMP              0 ****  ****    0 ROOT
