@<TRIPOS>MOLECULE
U2F
   57    59     1     0     0
SMALL
No Charge or Current Charge


@<TRIPOS>ATOM
      1 C1           8.1010     2.3440    -4.8440 c6         1 U2F       0.417300
      2 O1           7.3000     1.2000    -5.1800 os         1 U2F      -0.608400
      3 PB           6.9290     0.1130    -4.0560 p5         1 U2F       1.462800
      4 O1B          6.8000    -1.2130    -4.7290 o          1 U2F      -0.832500
      5 O2B          7.9730     0.1160    -2.9910 o          1 U2F      -0.832500
      6 O3A          5.5330     0.7110    -3.6370 os         1 U2F      -0.734800
      7 PA           5.0100     0.0520    -2.3020 p5         1 U2F       1.469800
      8 O1A          5.5880     0.6450    -1.0610 o          1 U2F      -0.842000
      9 O2A          5.0360    -1.4400    -2.2910 o          1 U2F      -0.842000
     10 O5           3.4810     0.5250    -2.4670 os         1 U2F      -0.588400
     11 C5           3.1400     1.8770    -2.1510 c3         1 U2F       0.227600
     12 C4           1.7330     2.1730    -2.7390 c5         1 U2F       0.149300
     13 O4           1.3290     3.5260    -2.3810 os         1 U2F      -0.482000
     14 C10          1.5180     4.3980    -3.5240 c5         1 U2F       0.293700
     15 C2           2.2270     3.5380    -4.6310 c5         1 U2F       0.080300
     16 C3           1.6690     2.1260    -4.3010 c5         1 U2F       0.152300
     17 O3           0.3310     1.9900    -4.8120 oh         1 U2F      -0.729000
     18 O2           1.8940     3.9440    -5.9760 oh         1 U2F      -0.709000
     19 N1           2.4150     5.5490    -3.2240 n          1 U2F      -0.307000
     20 C6           2.4130     6.6250    -4.1330 c          1 U2F       0.620000
     21 O6           1.7830     6.6050    -5.1790 o          1 U2F      -0.570000
     22 N3           3.1820     7.6970    -3.8080 ns         1 U2F      -0.475500
     23 C7           3.9620     7.8630    -2.7120 c          1 U2F       0.595200
     24 O7           4.6150     8.8730    -2.5250 o          1 U2F      -0.567000
     25 C8           3.9280     6.7280    -1.7960 cc         1 U2F      -0.410200
     26 C9           3.1640     5.6100    -2.0460 cd         1 U2F       0.038600
     27 C13          7.3440     3.5320    -4.1530 c6         1 U2F       0.137300
     28 F1           6.7730     3.1600    -2.9180 f          1 U2F      -0.267000
     29 C14          6.2390     4.0920    -5.0880 c6         1 U2F       0.105300
     30 O10          5.5550     5.2130    -4.4920 oh         1 U2F      -0.652000
     31 C12          6.8880     4.5280    -6.4310 c6         1 U2F       0.112300
     32 O9           5.8700     5.0120    -7.3220 oh         1 U2F      -0.724000
     33 C11          7.6860     3.3390    -7.0450 c6         1 U2F       0.094300
     34 C15          8.4720     3.7400    -8.3270 c3         1 U2F       0.183600
     35 O11          9.4770     2.7620    -8.6230 oh         1 U2F      -0.738000
     36 O8           8.6630     2.8300    -6.0890 os         1 U2F      -0.464000
     37 H1           8.9300     2.0360    -4.1850 h2         1 U2F       0.143700
     38 H5'1         3.1050     2.0150    -1.0620 h1         1 U2F       0.023200
     39 H5'2         3.8780     2.5780    -2.5620 h1         1 U2F       0.023200
     40 H4           1.0270     1.4600    -2.2920 h1         1 U2F       0.090700
     41 H7           0.5500     4.7900    -3.8630 h2         1 U2F       0.100700
     42 H2           3.3170     3.5570    -4.4890 h1         1 U2F       0.083700
     43 H3           2.3260     1.3370    -4.7000 h1         1 U2F       0.133700
     44 HB           0.3400     2.5380    -5.6360 ho         1 U2F       0.513000
     45 HA           1.8810     4.9390    -5.9730 ho         1 U2F       0.510000
     46 H12          3.1790     8.4570    -4.4680 hn         1 U2F       0.324500
     47 H8           4.5290     6.8300    -0.8990 ha         1 U2F       0.221000
     48 H9           3.0870     4.7530    -1.3800 h4         1 U2F       0.244000
     49 H11          8.0700     4.3270    -3.9330 h1         1 U2F       0.035700
     50 HC           5.5310     3.2730    -5.2930 h1         1 U2F       0.109700
     51 HD           5.5060     5.0330    -3.5280 ho         1 U2F       0.428000
     52 H10          7.6020     5.3380    -6.2150 h1         1 U2F       0.062700
     53 HE           5.2530     5.5150    -6.7380 ho         1 U2F       0.505000
     54 H5           6.9900     2.5300    -7.3130 h1         1 U2F       0.074700
     55 H6C1         8.9420     4.7180    -8.1580 h1         1 U2F       0.026200
     56 H6C2         7.7710     3.8450    -9.1660 h1         1 U2F       0.026200
     57 H6           9.6910     2.3830    -7.7330 ho         1 U2F       0.553000
@<TRIPOS>BOND
     1     1     2 1   
     2     1    27 1   
     3     1    36 1   
     4     1    37 1   
     5     2     3 1   
     6     3     4 1   
     7     3     5 1   
     8     3     6 1   
     9     6     7 1   
    10     7     8 1   
    11     7     9 1   
    12     7    10 1   
    13    10    11 1   
    14    11    12 1   
    15    11    38 1   
    16    11    39 1   
    17    12    13 1   
    18    12    16 1   
    19    12    40 1   
    20    13    14 1   
    21    14    15 1   
    22    14    19 1   
    23    14    41 1   
    24    15    16 1   
    25    15    18 1   
    26    15    42 1   
    27    16    17 1   
    28    16    43 1   
    29    17    44 1   
    30    18    45 1   
    31    19    20 1   
    32    19    26 1   
    33    20    21 2   
    34    20    22 1   
    35    22    23 1   
    36    22    46 1   
    37    23    24 2   
    38    23    25 1   
    39    25    26 2   
    40    25    47 1   
    41    26    48 1   
    42    27    28 1   
    43    27    29 1   
    44    27    49 1   
    45    29    30 1   
    46    29    31 1   
    47    29    50 1   
    48    30    51 1   
    49    31    32 1   
    50    31    33 1   
    51    31    52 1   
    52    32    53 1   
    53    33    34 1   
    54    33    36 1   
    55    33    54 1   
    56    34    35 1   
    57    34    55 1   
    58    34    56 1   
    59    35    57 1   
@<TRIPOS>SUBSTRUCTURE
     1 U2F         1 TEMP              0 ****  ****    0 ROOT
