@<TRIPOS>MOLECULE
U2F
   57    59     1     0     0
SMALL
abcg2


@<TRIPOS>ATOM
      1 C1           7.0730     2.6920    -4.8950 c6         1 U2F       0.417300
      2 O1           6.1740     2.0690    -5.7540 os         1 U2F      -0.608400
      3 PB           5.8910     0.4410    -5.6520 p5         1 U2F       1.462800
      4 O1B          5.0590     0.1330    -6.8510 o          1 U2F      -0.832500
      5 O2B          7.1550    -0.2890    -5.3410 o          1 U2F      -0.832500
      6 O3A          4.8960     0.4040    -4.3470 os         1 U2F      -0.734800
      7 PA           5.2490    -0.0930    -2.8170 p5         1 U2F       1.469800
      8 O1A          6.4220     0.6670    -2.2800 o          1 U2F      -0.842000
      9 O2A          5.1730    -1.5820    -2.7420 o          1 U2F      -0.842000
     10 O5           3.8730     0.4560    -2.1070 os         1 U2F      -0.588400
     11 C5           3.6630     1.8440    -1.9640 c3         1 U2F       0.227600
     12 C4           2.1720     2.0970    -2.1330 c5         1 U2F       0.149300
     13 O4           1.8880     3.4560    -1.7740 os         1 U2F      -0.482000
     14 C10          1.3210     4.1320    -2.8620 c5         1 U2F       0.293700
     15 C2           1.7700     3.3470    -4.0990 c5         1 U2F       0.080300
     16 C3           1.6850     1.9180    -3.5690 c5         1 U2F       0.152300
     17 O3           0.3550     1.4620    -3.5360 oh         1 U2F      -0.729000
     18 O2           0.9530     3.5380    -5.2130 oh         1 U2F      -0.709000
     19 N1           1.7560     5.5190    -2.8340 n          1 U2F      -0.307000
     20 C6           0.8130     6.5290    -2.8940 c          1 U2F       0.620000
     21 O6          -0.3800     6.3260    -2.9600 o          1 U2F      -0.570000
     22 N3           1.3360     7.7950    -2.8790 ns         1 U2F      -0.475500
     23 C7           2.6680     8.1730    -2.8060 c          1 U2F       0.595200
     24 O7           2.9780     9.3500    -2.8060 o          1 U2F      -0.567000
     25 C8           3.5770     7.0560    -2.7290 cc         1 U2F      -0.410200
     26 C9           3.0900     5.8070    -2.7400 cd         1 U2F       0.038600
     27 C13          6.6980     4.1670    -4.7930 c6         1 U2F       0.137300
     28 F1           5.3690     4.2720    -4.3960 f          1 U2F      -0.267000
     29 C14          6.9010     4.9100    -6.1040 c6         1 U2F       0.105300
     30 O10          6.5810     6.2710    -5.9950 oh         1 U2F      -0.652000
     31 C12          8.3350     4.6750    -6.6000 c6         1 U2F       0.112300
     32 O9           8.5700     5.2840    -7.8420 oh         1 U2F      -0.724000
     33 C11          8.6200     3.1720    -6.6340 c6         1 U2F       0.094300
     34 C15         10.0540     2.8210    -6.9830 c3         1 U2F       0.183600
     35 O11         10.2320     1.4290    -7.1010 oh         1 U2F      -0.738000
     36 O8           8.3890     2.6120    -5.3510 os         1 U2F      -0.464000
     37 H1           7.0690     2.2340    -3.9010 h2         1 U2F       0.143700
     38 H5'1         3.9800     2.1790    -0.9710 h1         1 U2F       0.023200
     39 H5'2         4.2330     2.4270    -2.6980 h1         1 U2F       0.023200
     40 H4           1.6210     1.4330    -1.4600 h1         1 U2F       0.090700
     41 H7           0.2310     4.1420    -2.8090 h2         1 U2F       0.100700
     42 H2           2.8210     3.5730    -4.3280 h1         1 U2F       0.083700
     43 H3           2.3320     1.2390    -4.1340 h1         1 U2F       0.133700
     44 HB           0.0180     1.4440    -4.4380 ho         1 U2F       0.513000
     45 HA           1.2860     4.2770    -5.7300 ho         1 U2F       0.510000
     46 H12          0.6530     8.5400    -2.9290 hn         1 U2F       0.324500
     47 H8           4.6390     7.2310    -2.6570 ha         1 U2F       0.221000
     48 H9           3.7510     4.9590    -2.6630 h4         1 U2F       0.244000
     49 H11          7.3080     4.6250    -4.0080 h1         1 U2F       0.035700
     50 HC           6.2090     4.5010    -6.8510 h1         1 U2F       0.109700
     51 HD           7.1620     6.6810    -5.3450 ho         1 U2F       0.428000
     52 H10          9.0330     5.1480    -5.8960 h1         1 U2F       0.062700
     53 HE           7.9710     4.9020    -8.4940 ho         1 U2F       0.505000
     54 H5           7.9630     2.7060    -7.3820 h1         1 U2F       0.074700
     55 H6C1        10.7270     3.2570    -6.2310 h1         1 U2F       0.026200
     56 H6C2        10.3100     3.2640    -7.9450 h1         1 U2F       0.026200
     57 H6           9.8480     1.0140    -6.3210 ho         1 U2F       0.553000
@<TRIPOS>BOND
     1     1     2 1   
     2     1    27 1   
     3     1    36 1   
     4     1    37 1   
     5     2     3 1   
     6     3     4 1   
     7     3     5 1   
     8     3     6 1   
     9     6     7 1   
    10     7     8 1   
    11     7     9 1   
    12     7    10 1   
    13    10    11 1   
    14    11    12 1   
    15    11    38 1   
    16    11    39 1   
    17    12    13 1   
    18    12    16 1   
    19    12    40 1   
    20    13    14 1   
    21    14    15 1   
    22    14    19 1   
    23    14    41 1   
    24    15    16 1   
    25    15    18 1   
    26    15    42 1   
    27    16    17 1   
    28    16    43 1   
    29    17    44 1   
    30    18    45 1   
    31    19    20 1   
    32    19    26 1   
    33    20    21 2   
    34    20    22 1   
    35    22    23 1   
    36    22    46 1   
    37    23    24 2   
    38    23    25 1   
    39    25    26 2   
    40    25    47 1   
    41    26    48 1   
    42    27    28 1   
    43    27    29 1   
    44    27    49 1   
    45    29    30 1   
    46    29    31 1   
    47    29    50 1   
    48    30    51 1   
    49    31    32 1   
    50    31    33 1   
    51    31    52 1   
    52    32    53 1   
    53    33    34 1   
    54    33    36 1   
    55    33    54 1   
    56    34    35 1   
    57    34    55 1   
    58    34    56 1   
    59    35    57 1   
@<TRIPOS>SUBSTRUCTURE
     1 U2F         1 TEMP              0 ****  ****    0 ROOT
