@<TRIPOS>MOLECULE
U2H
   47    49     1     0     0
SMALL
No Charge or Current Charge


@<TRIPOS>ATOM
      1 CAD         12.6300   -12.2450   -33.0400 cc         1 U2H      -0.155400
      2 CAE         11.2060   -12.2080   -33.2280 ca         1 U2H      -0.058800
      3 CAF         10.9510   -12.4830   -34.5410 ca         1 U2H      -0.079200
      4 CAG         13.3820   -12.0030   -31.7540 c3         1 U2H       0.239000
      5 CAH         13.1700   -12.5460   -34.2880 cd         1 U2H      -0.128100
      6 CAI         10.1760   -11.9420   -32.3150 ca         1 U2H      -0.108000
      7 CAJ          9.6420   -12.5180   -35.0390 ca         1 U2H      -0.093000
      8 CAK          8.8450   -11.9610   -32.7800 ca         1 U2H       0.106100
      9 CAL          8.5800   -12.2560   -34.1460 ca         1 U2H      -0.157000
     10 CAM         13.0740    -9.5560   -31.8710 c3         1 U2H       0.150100
     11 CAN         14.8760   -10.4740   -30.4820 c3         1 U2H       0.162800
     12 CAO          6.4650   -11.4990   -32.2390 c3         1 U2H       0.210900
     13 CAP          6.3190   -10.2040   -33.0390 ca         1 U2H      -0.126300
     14 CAQ          5.5950   -10.1920   -34.2490 ca         1 U2H      -0.095000
     15 CAR          6.8950    -9.0050   -32.5700 ca         1 U2H      -0.095000
     16 CAS          5.4580    -9.0010   -34.9830 ca         1 U2H      -0.111500
     17 CAT          6.7570    -7.8150   -33.3050 ca         1 U2H      -0.111500
     18 CAU          6.0390    -7.8120   -34.5120 ca         1 U2H      -0.105000
     19 NAB         12.1270   -12.7010   -35.2340 na         1 U2H      -0.225700
     20 NAC         14.0380   -10.6690   -31.6920 n3         1 U2H      -0.712600
     21 OAA          7.8440   -11.6980   -31.8640 os         1 U2H      -0.348100
     22 C24         17.0200   -11.0650   -29.1860 c3         1 U2H      -0.091100
     23 C42         16.0860   -11.4310   -30.3570 c3         1 U2H      -0.077400
     24 H1          12.6930   -12.1230   -30.9080 h1         1 U2H       0.034700
     25 H2          14.1310   -12.8010   -31.6690 h1         1 U2H       0.034700
     26 H3          14.2150   -12.6570   -34.5660 h4         1 U2H       0.214000
     27 H4          10.3920   -11.7190   -31.2740 ha         1 U2H       0.126000
     28 H5           9.4470   -12.7400   -36.0860 ha         1 U2H       0.112000
     29 H6           7.5650   -12.2880   -34.5280 ha         1 U2H       0.118000
     30 H7          13.5900    -8.5870   -31.8470 h1         1 U2H       0.031700
     31 H8          12.5560    -9.6290   -32.8360 h1         1 U2H       0.031700
     32 H9          12.3180    -9.5610   -31.0730 h1         1 U2H       0.031700
     33 H10         15.2730    -9.4490   -30.4860 h1         1 U2H       0.027700
     34 H11         14.2570   -10.5700   -29.5790 h1         1 U2H       0.027700
     35 H12          5.8450   -11.4200   -31.3370 h1         1 U2H       0.057700
     36 H13          6.0890   -12.3560   -32.8140 h1         1 U2H       0.057700
     37 H14          5.1380   -11.1070   -34.6230 ha         1 U2H       0.116500
     38 H15          7.4520    -8.9960   -31.6350 ha         1 U2H       0.116500
     39 H16          4.9000    -9.0010   -35.9170 ha         1 U2H       0.112500
     40 H17          7.2060    -6.8940   -32.9380 ha         1 U2H       0.112500
     41 H18          5.9320    -6.8910   -35.0810 ha         1 U2H       0.112000
     42 H19         12.2250   -12.9210   -36.2210 hn         1 U2H       0.349000
     43 H21         17.8600   -11.7680   -29.1330 hc         1 U2H       0.031700
     44 H22         17.4260   -10.0540   -29.3150 hc         1 U2H       0.031700
     45 H23         16.4790   -11.1030   -28.2330 hc         1 U2H       0.031700
     46 H24         15.7380   -12.4600   -30.2100 hc         1 U2H       0.044200
     47 H25         16.6600   -11.4110   -31.2910 hc         1 U2H       0.044200
@<TRIPOS>BOND
     1     1     2 1   
     2     1     4 1   
     3     1     5 2   
     4     2     3 ar  
     5     2     6 ar  
     6     3     7 ar  
     7     3    19 1   
     8     4    20 1   
     9     4    24 1   
    10     4    25 1   
    11     5    19 1   
    12     5    26 1   
    13     6     8 ar  
    14     6    27 1   
    15     7     9 ar  
    16     7    28 1   
    17     8     9 ar  
    18     8    21 1   
    19     9    29 1   
    20    10    20 1   
    21    10    30 1   
    22    10    31 1   
    23    10    32 1   
    24    11    20 1   
    25    11    23 1   
    26    11    33 1   
    27    11    34 1   
    28    12    13 1   
    29    12    21 1   
    30    12    35 1   
    31    12    36 1   
    32    13    14 ar  
    33    13    15 ar  
    34    14    16 ar  
    35    14    37 1   
    36    15    17 ar  
    37    15    38 1   
    38    16    18 ar  
    39    16    39 1   
    40    17    18 ar  
    41    17    40 1   
    42    18    41 1   
    43    19    42 1   
    44    22    23 1   
    45    22    43 1   
    46    22    44 1   
    47    22    45 1   
    48    23    46 1   
    49    23    47 1   
@<TRIPOS>SUBSTRUCTURE
     1 U2H         1 TEMP              0 ****  ****    0 ROOT
