@<TRIPOS>MOLECULE
U2H
   47    49     1     0     0
SMALL
abcg2


@<TRIPOS>ATOM
      1 CAD         12.6400   -12.2550   -32.9420 cc         1 U2H      -0.155400
      2 CAE         11.2230   -12.1720   -33.1350 ca         1 U2H      -0.058800
      3 CAF         10.9700   -12.4600   -34.4930 ca         1 U2H      -0.079200
      4 CAG         13.4020   -12.0220   -31.6770 c3         1 U2H       0.239000
      5 CAH         13.1670   -12.5830   -34.1620 cd         1 U2H      -0.128100
      6 CAI         10.1520   -11.8780   -32.2860 ca         1 U2H      -0.108000
      7 CAJ          9.6810   -12.4590   -35.0080 ca         1 U2H      -0.093000
      8 CAK          8.8660   -11.8800   -32.7970 ca         1 U2H       0.106100
      9 CAL          8.6310   -12.1660   -34.1550 ca         1 U2H      -0.157000
     10 CAM         12.9920    -9.6620   -31.5860 c3         1 U2H       0.150100
     11 CAN         14.8610   -10.5780   -30.4210 c3         1 U2H       0.162800
     12 CAO          6.5550   -11.4320   -32.3600 c3         1 U2H       0.210900
     13 CAP          6.3520   -10.1720   -33.1640 ca         1 U2H      -0.126300
     14 CAQ          5.4100   -10.1480   -34.1870 ca         1 U2H      -0.095000
     15 CAR          7.0630    -9.0100   -32.8740 ca         1 U2H      -0.095000
     16 CAS          5.1740    -8.9850   -34.9070 ca         1 U2H      -0.111500
     17 CAT          6.8350    -7.8490   -33.5990 ca         1 U2H      -0.111500
     18 CAU          5.8890    -7.8310   -34.6160 ca         1 U2H      -0.105000
     19 NAB         12.1770   -12.7030   -35.0900 na         1 U2H      -0.225700
     20 NAC         14.0050   -10.6960   -31.5910 n3         1 U2H      -0.712600
     21 OAA          7.8760   -11.6080   -31.9030 os         1 U2H      -0.348100
     22 C24         17.0670   -11.0810   -29.3200 c3         1 U2H      -0.091100
     23 C42         16.1690   -11.3550   -30.5190 c3         1 U2H      -0.077400
     24 H1          12.7350   -12.2040   -30.8160 h1         1 U2H       0.034700
     25 H2          14.1980   -12.7640   -31.6040 h1         1 U2H       0.034700
     26 H3          14.1980   -12.7430   -34.4360 h4         1 U2H       0.214000
     27 H4          10.3150   -11.6520   -31.2380 ha         1 U2H       0.126000
     28 H5           9.4890   -12.6770   -36.0520 ha         1 U2H       0.112000
     29 H6           7.6290   -12.1640   -34.5600 ha         1 U2H       0.118000
     30 H7          13.4640    -8.6790   -31.5400 h1         1 U2H       0.031700
     31 H8          12.4000    -9.7010   -32.5000 h1         1 U2H       0.031700
     32 H9          12.2960    -9.7410   -30.7350 h1         1 U2H       0.031700
     33 H10         15.1090    -9.5190   -30.3010 h1         1 U2H       0.027700
     34 H11         14.3300   -10.8710   -29.4970 h1         1 U2H       0.027700
     35 H12          5.9500   -11.3880   -31.4520 h1         1 U2H       0.057700
     36 H13          6.2030   -12.3030   -32.9250 h1         1 U2H       0.057700
     37 H14          4.8590   -11.0500   -34.4290 ha         1 U2H       0.116500
     38 H15          7.8020    -9.0070   -32.0830 ha         1 U2H       0.116500
     39 H16          4.4390    -8.9830   -35.7010 ha         1 U2H       0.112500
     40 H17          7.3980    -6.9540   -33.3670 ha         1 U2H       0.112500
     41 H18          5.7130    -6.9240   -35.1800 ha         1 U2H       0.112000
     42 H19         12.3150   -12.9520   -36.0560 hn         1 U2H       0.349000
     43 H21         18.0020   -11.6380   -29.3900 hc         1 U2H       0.031700
     44 H22         17.3190   -10.0220   -29.2460 hc         1 U2H       0.031700
     45 H23         16.5810   -11.3700   -28.3870 hc         1 U2H       0.031700
     46 H24         15.9820   -12.4290   -30.5840 hc         1 U2H       0.044200
     47 H25         16.6780   -11.0710   -31.4430 hc         1 U2H       0.044200
@<TRIPOS>BOND
     1     1     2 1   
     2     1     4 1   
     3     1     5 2   
     4     2     3 ar  
     5     2     6 ar  
     6     3     7 ar  
     7     3    19 1   
     8     4    20 1   
     9     4    24 1   
    10     4    25 1   
    11     5    19 1   
    12     5    26 1   
    13     6     8 ar  
    14     6    27 1   
    15     7     9 ar  
    16     7    28 1   
    17     8     9 ar  
    18     8    21 1   
    19     9    29 1   
    20    10    20 1   
    21    10    30 1   
    22    10    31 1   
    23    10    32 1   
    24    11    20 1   
    25    11    23 1   
    26    11    33 1   
    27    11    34 1   
    28    12    13 1   
    29    12    21 1   
    30    12    35 1   
    31    12    36 1   
    32    13    14 ar  
    33    13    15 ar  
    34    14    16 ar  
    35    14    37 1   
    36    15    17 ar  
    37    15    38 1   
    38    16    18 ar  
    39    16    39 1   
    40    17    18 ar  
    41    17    40 1   
    42    18    41 1   
    43    19    42 1   
    44    22    23 1   
    45    22    43 1   
    46    22    44 1   
    47    22    45 1   
    48    23    46 1   
    49    23    47 1   
@<TRIPOS>SUBSTRUCTURE
     1 U2H         1 TEMP              0 ****  ****    0 ROOT
