@<TRIPOS>MOLECULE
U2I
   44    47     1     0     0
SMALL
abcg2


@<TRIPOS>ATOM
      1 C10          0.9820    17.0220   128.7000 ca         1 U2I      -0.123000
      2 C13          3.9220    13.6370   126.2130 c          1 U2I       0.656100
      3 C17          5.3730    13.6460   123.5110 ca         1 U2I       0.327900
      4 C20          4.5260    15.7280   121.9480 ca         1 U2I      -0.085000
      5 C21          4.1030    16.7890   121.1130 ca         1 U2I      -0.079000
      6 C22          3.4210    17.8540   121.6400 ca         1 U2I      -0.112000
      7 C24          3.5260    16.8790   123.8560 ca         1 U2I      -0.112000
      8 C01          0.7360    13.8230   127.1550 c3         1 U2I      -0.119100
      9 C02          1.4670    13.5820   128.4630 c3         1 U2I       0.152300
     10 C03          2.8610    12.9760   128.2980 c3         1 U2I       0.080000
     11 C05          4.2000    15.0430   128.2610 c3         1 U2I       0.146300
     12 C06          3.1970    16.1690   128.2210 ca         1 U2I      -0.163300
     13 C07          3.5450    17.4260   127.7320 ca         1 U2I      -0.098000
     14 C08          2.6320    18.4750   127.7160 ca         1 U2I      -0.125000
     15 C09          1.3470    18.2710   128.2070 ca         1 U2I      -0.086000
     16 C11          1.8970    15.9760   128.7070 ca         1 U2I       0.137100
     17 C16          4.7100    14.6810   124.1300 ca         1 U2I      -0.064000
     18 C19          5.2070    14.6000   121.4350 ca         1 U2I       0.343900
     19 C23          3.1260    17.8920   123.0210 ca         1 U2I      -0.091000
     20 C25          4.2480    15.7740   123.3430 ca         1 U2I      -0.033000
     21 N04          3.7710    13.8360   127.5580 n          1 U2I      -0.418800
     22 N15          4.5020    14.6850   125.5200 ns         1 U2I      -0.166000
     23 N18          5.6110    13.5950   122.1790 nb         1 U2I      -0.645000
     24 O12          1.5050    14.7870   129.2780 os         1 U2I      -0.381100
     25 O14          3.5790    12.5960   125.6550 o          1 U2I      -0.618100
     26 H1          -0.0140    16.8440   129.0850 ha         1 U2I       0.129000
     27 H3           4.3260    16.7400   120.0540 ha         1 U2I       0.119000
     28 H4           3.0970    18.6660   121.0020 ha         1 U2I       0.117000
     29 H5           3.2720    16.9260   124.9050 ha         1 U2I       0.114000
     30 H6          -0.2450    14.2580   127.3480 hc         1 U2I       0.051700
     31 H7           1.2880    14.5000   126.5010 hc         1 U2I       0.051700
     32 H8           0.6030    12.8770   126.6310 hc         1 U2I       0.051700
     33 H9           0.8890    12.8910   129.0790 h1         1 U2I       0.080700
     34 H10          2.7760    12.0240   127.7790 h1         1 U2I       0.076700
     35 H11          3.2880    12.7950   129.2860 h1         1 U2I       0.076700
     36 H12          4.3720    14.7470   129.2990 h1         1 U2I       0.066700
     37 H13          5.1610    15.3770   127.8720 h1         1 U2I       0.066700
     38 H14          4.5530    17.5850   127.3650 ha         1 U2I       0.110000
     39 H15          2.9240    19.4420   127.3270 ha         1 U2I       0.119000
     40 H16          0.6260    19.0780   128.2020 ha         1 U2I       0.119000
     41 H17          5.4170    14.5510   120.3700 h4         1 U2I       0.021100
     42 H18          2.5710    18.7290   123.4240 ha         1 U2I       0.114000
     43 H19          4.5090    15.5880   125.9600 hn         1 U2I       0.152000
     44 H2           5.7340    12.8130   124.0990 h4         1 U2I       0.038100
@<TRIPOS>BOND
     1     1    15 ar  
     2     1    16 ar  
     3     1    26 1   
     4     2    21 1   
     5     2    22 1   
     6     2    25 2   
     7     3    17 ar  
     8     3    23 ar  
     9     3    44 1   
    10     4     5 ar  
    11     4    18 ar  
    12     4    20 ar  
    13     5     6 ar  
    14     5    27 1   
    15     6    19 ar  
    16     6    28 1   
    17     7    19 ar  
    18     7    20 ar  
    19     7    29 1   
    20     8     9 1   
    21     8    30 1   
    22     8    31 1   
    23     8    32 1   
    24     9    10 1   
    25     9    24 1   
    26     9    33 1   
    27    10    21 1   
    28    10    34 1   
    29    10    35 1   
    30    11    12 1   
    31    11    21 1   
    32    11    36 1   
    33    11    37 1   
    34    12    13 ar  
    35    12    16 ar  
    36    13    14 ar  
    37    13    38 1   
    38    14    15 ar  
    39    14    39 1   
    40    15    40 1   
    41    16    24 1   
    42    17    20 ar  
    43    17    22 1   
    44    18    23 ar  
    45    18    41 1   
    46    19    42 1   
    47    22    43 1   
@<TRIPOS>SUBSTRUCTURE
     1 U2I         1 TEMP              0 ****  ****    0 ROOT
