@<TRIPOS>MOLECULE
U2I
   44    47     1     0     0
SMALL
No Charge or Current Charge


@<TRIPOS>ATOM
      1 C10          0.7560    16.8630   129.0440 ca         1 U2I      -0.123000
      2 C13          3.7770    13.6430   126.1210 c          1 U2I       0.656100
      3 C17          4.8100    13.4360   123.1920 ca         1 U2I       0.327900
      4 C20          4.7070    15.7620   121.7270 ca         1 U2I      -0.085000
      5 C21          4.6690    16.9240   120.9330 ca         1 U2I      -0.079000
      6 C22          4.3290    18.1590   121.5110 ca         1 U2I      -0.112000
      7 C24          4.0600    17.0750   123.6750 ca         1 U2I      -0.112000
      8 C01          0.6390    13.4640   127.7310 c3         1 U2I      -0.119100
      9 C02          1.6590    13.4340   128.8940 c3         1 U2I       0.152300
     10 C03          3.0990    13.0460   128.4740 c3         1 U2I       0.080000
     11 C05          4.1130    15.2850   128.0340 c3         1 U2I       0.146300
     12 C06          2.9440    16.2480   128.1520 ca         1 U2I      -0.163300
     13 C07          3.0310    17.5160   127.5400 ca         1 U2I      -0.098000
     14 C08          1.9820    18.4410   127.6640 ca         1 U2I      -0.125000
     15 C09          0.8430    18.1170   128.4160 ca         1 U2I      -0.086000
     16 C11          1.7900    15.9220   128.9060 ca         1 U2I       0.137100
     17 C16          4.4560    14.6340   123.8630 ca         1 U2I      -0.064000
     18 C19          5.0420    14.5180   121.1580 ca         1 U2I       0.343900
     19 C23          4.0230    18.2330   122.8790 ca         1 U2I      -0.091000
     20 C25          4.4070    15.8290   123.1060 ca         1 U2I      -0.033000
     21 N04          3.7090    13.9730   127.4950 n          1 U2I      -0.418800
     22 N15          4.1890    14.6540   125.2640 ns         1 U2I      -0.166000
     23 N18          5.0970    13.3710   121.8710 nb         1 U2I      -0.645000
     24 O12          1.6480    14.7180   129.5690 os         1 U2I      -0.381100
     25 O14          3.4630    12.5300   125.7190 o          1 U2I      -0.618100
     26 H1          -0.1210    16.6140   129.6350 ha         1 U2I       0.129000
     27 H3           4.9020    16.8730   119.8710 ha         1 U2I       0.119000
     28 H4           4.2990    19.0570   120.8970 ha         1 U2I       0.117000
     29 H5           3.8080    17.1590   124.7270 ha         1 U2I       0.114000
     30 H6          -0.3570    13.7360   128.1010 hc         1 U2I       0.051700
     31 H7           0.9290    14.1860   126.9580 hc         1 U2I       0.051700
     32 H8           0.5690    12.4760   127.2620 hc         1 U2I       0.051700
     33 H9           1.3230    12.6650   129.6020 h1         1 U2I       0.080700
     34 H10          3.0850    12.0240   128.0740 h1         1 U2I       0.076700
     35 H11          3.7280    13.0160   129.3740 h1         1 U2I       0.076700
     36 H12          4.5380    15.1380   129.0360 h1         1 U2I       0.066700
     37 H13          4.9150    15.7220   127.4270 h1         1 U2I       0.066700
     38 H14          3.9200    17.7950   126.9790 ha         1 U2I       0.110000
     39 H15          2.0580    19.4160   127.1860 ha         1 U2I       0.119000
     40 H16          0.0340    18.8370   128.5210 ha         1 U2I       0.119000
     41 H17          5.2780    14.4360   120.0980 h4         1 U2I       0.021100
     42 H18          3.7540    19.1880   123.3240 ha         1 U2I       0.114000
     43 H19          4.3420    15.5490   125.7070 hn         1 U2I       0.152000
     44 H2           4.8980    12.4930   123.7280 h4         1 U2I       0.038100
@<TRIPOS>BOND
     1     1    15 ar  
     2     1    16 ar  
     3     1    26 1   
     4     2    21 1   
     5     2    22 1   
     6     2    25 2   
     7     3    17 ar  
     8     3    23 ar  
     9     3    44 1   
    10     4     5 ar  
    11     4    18 ar  
    12     4    20 ar  
    13     5     6 ar  
    14     5    27 1   
    15     6    19 ar  
    16     6    28 1   
    17     7    19 ar  
    18     7    20 ar  
    19     7    29 1   
    20     8     9 1   
    21     8    30 1   
    22     8    31 1   
    23     8    32 1   
    24     9    10 1   
    25     9    24 1   
    26     9    33 1   
    27    10    21 1   
    28    10    34 1   
    29    10    35 1   
    30    11    12 1   
    31    11    21 1   
    32    11    36 1   
    33    11    37 1   
    34    12    13 ar  
    35    12    16 ar  
    36    13    14 ar  
    37    13    38 1   
    38    14    15 ar  
    39    14    39 1   
    40    15    40 1   
    41    16    24 1   
    42    17    20 ar  
    43    17    22 1   
    44    18    23 ar  
    45    18    41 1   
    46    19    42 1   
    47    22    43 1   
@<TRIPOS>SUBSTRUCTURE
     1 U2I         1 TEMP              0 ****  ****    0 ROOT
