@<TRIPOS>MOLECULE
U2J
   63    67     1     0     0
SMALL
No Charge or Current Charge


@<TRIPOS>ATOM
      1 C19          7.8800   -10.5690    13.3920 ca         1 U2J      -0.083500
      2 C21          8.3740   -12.6540    14.5310 ca         1 U2J      -0.083500
      3 C18          8.8500    -9.9130    14.1700 ca         1 U2J      -0.073500
      4 C22          9.3420   -11.9970    15.3090 ca         1 U2J      -0.073500
      5 C7          10.1470    -6.0310    18.9100 cc         1 U2J      -0.197000
      6 C20          7.6330   -11.9490    13.5560 ca         1 U2J      -0.121500
      7 C17          9.6100   -10.6250    15.1240 ca         1 U2J      -0.127600
      8 C6          11.3910    -6.2890    19.4490 cd         1 U2J       0.218500
      9 C23          6.6150   -12.6230    12.7340 cc         1 U2J       0.451000
     10 C5          11.6220    -7.2800    17.4500 cc         1 U2J       0.425700
     11 C13         11.2770    -5.6470    10.1720 c          1 U2J       0.579000
     12 C14         11.8510    -7.4410     8.5720 c          1 U2J       0.625000
     13 C16         10.6510    -9.9470    15.9880 c          1 U2J       0.612700
     14 C12         12.7530    -5.5030    10.5250 c6         1 U2J      -0.175400
     15 C4          12.8550    -7.0450    15.2490 c5         1 U2J      -0.100400
     16 C2          11.7440    -8.7850    14.0160 c5         1 U2J       0.084000
     17 C1          12.2820    -8.0330    16.3040 c5         1 U2J       0.074400
     18 C11         13.5110    -6.8430    10.4000 c6         1 U2J       0.037700
     19 C3          13.0960    -8.0170    14.0720 c5         1 U2J       0.090700
     20 C9          13.6030    -5.8060    22.5200 c3         1 U2J       0.096300
     21 N10          6.2790   -13.9460    12.7830 na         1 U2J      -0.209700
     22 N2          12.2380    -7.0070    18.5950 nd         1 U2J      -0.636000
     23 N7           5.8490   -12.0740    11.8120 nd         1 U2J      -0.382000
     24 N9           5.2990   -14.2230    11.8860 nc         1 U2J      -0.199800
     25 N8           5.0540   -13.0780    11.3100 nd         1 U2J      -0.038000
     26 N6          13.0690    -7.5640     9.1900 ns         1 U2J      -0.484900
     27 N5          10.9500    -6.5180     9.1230 n          1 U2J      -0.376400
     28 N1          11.3760    -8.8590    15.4540 n          1 U2J      -0.420800
     29 N4          13.1570    -7.1720    12.8700 ns         1 U2J      -0.498900
     30 O4          10.4300    -5.0240    10.7960 o          1 U2J      -0.518000
     31 O3          11.5800    -8.1440     7.6130 o          1 U2J      -0.547000
     32 O5          10.8120   -10.2860    17.1530 o          1 U2J      -0.567100
     33 S1           9.9890    -6.6770    17.3040 ss         1 U2J       0.005600
     34 H21          7.3130    -9.9910    12.6650 ha         1 U2J       0.131000
     35 H22          8.2070   -13.7160    14.6980 ha         1 U2J       0.131000
     36 H20          8.9810    -8.8410    14.0460 ha         1 U2J       0.131500
     37 H23          9.8990   -12.5630    16.0530 ha         1 U2J       0.131500
     38 H7           9.3180    -5.5000    19.3590 h4         1 U2J       0.182000
     39 H15         13.1630    -4.8770     9.7200 hc         1 U2J       0.088700
     40 H14         12.9010    -4.9530    11.4630 hc         1 U2J       0.088700
     41 H5          13.7730    -6.5520    15.5880 hc         1 U2J       0.067700
     42 H6          12.1270    -6.2620    15.0020 hc         1 U2J       0.067700
     43 H3          10.9920    -8.2210    13.4500 h1         1 U2J       0.068700
     44 H2          11.8570    -9.7760    13.5570 h1         1 U2J       0.068700
     45 H1          13.0820    -8.6640    16.7160 h1         1 U2J       0.095700
     46 H13         14.5750    -6.5980    10.2650 h1         1 U2J       0.079700
     47 H4          13.9640    -8.6740    14.2270 h1         1 U2J       0.088700
     48 H19          9.0770    -5.5430     8.7720 h1         1 U2J       0.058033
     49 H17          9.5240    -6.7390     7.5450 h1         1 U2J       0.058033
     50 H18          8.9700    -7.2850     9.1540 h1         1 U2J       0.058033
     51 H9          14.6280    -6.1970    22.5640 h1         1 U2J       0.040033
     52 H10         13.6260    -4.7160    22.6430 h1         1 U2J       0.040033
     53 H11         13.0110    -6.2540    23.3280 h1         1 U2J       0.040033
     54 H24          6.6780   -14.6540    13.3850 hn         1 U2J       0.388000
     55 H16         13.6840    -8.2690     8.7980 hn         1 U2J       0.336500
     56 H8          13.5530    -6.6650    20.5470 hn         1 U2J       0.338500
     57 H12         12.9310    -6.1850    12.8650 hn         1 U2J       0.320500
     58 C8          11.7270    -5.8050    20.8380 c          1 U2J       0.530600
     59 C10         13.5070    -7.7620    11.6650 c          1 U2J       0.563100
     60 C15          9.5500    -6.5210     8.6200 c3         1 U2J       0.087300
     61 N3          13.0070    -6.1440    21.2270 ns         1 U2J      -0.490900
     62 O1          10.9690    -5.1760    21.5700 o          1 U2J      -0.605100
     63 O2          13.8340    -8.9400    11.5930 o          1 U2J      -0.572100
@<TRIPOS>BOND
     1     1     3 ar  
     2     1     6 ar  
     3     1    34 1   
     4     2     4 ar  
     5     2     6 ar  
     6     2    35 1   
     7     3     7 ar  
     8     3    36 1   
     9     4     7 ar  
    10     4    37 1   
    11     5     8 2   
    12     5    33 1   
    13     5    38 1   
    14     6     9 1   
    15     7    13 1   
    16     8    22 1   
    17     8    58 1   
    18     9    21 1   
    19     9    23 2   
    20    10    17 1   
    21    10    22 2   
    22    10    33 1   
    23    11    14 1   
    24    11    27 1   
    25    11    30 2   
    26    12    26 1   
    27    12    27 1   
    28    12    31 2   
    29    13    28 1   
    30    13    32 2   
    31    14    18 1   
    32    14    39 1   
    33    14    40 1   
    34    15    17 1   
    35    15    19 1   
    36    15    41 1   
    37    15    42 1   
    38    16    19 1   
    39    16    28 1   
    40    16    43 1   
    41    16    44 1   
    42    17    28 1   
    43    17    45 1   
    44    18    26 1   
    45    18    46 1   
    46    18    59 1   
    47    19    29 1   
    48    19    47 1   
    49    20    51 1   
    50    20    52 1   
    51    20    53 1   
    52    20    61 1   
    53    21    24 1   
    54    21    54 1   
    55    23    25 1   
    56    24    25 2   
    57    26    55 1   
    58    27    60 1   
    59    29    57 1   
    60    29    59 1   
    61    48    60 1   
    62    49    60 1   
    63    50    60 1   
    64    56    61 1   
    65    58    61 1   
    66    58    62 2   
    67    59    63 2   
@<TRIPOS>SUBSTRUCTURE
     1 U2J         1 TEMP              0 ****  ****    0 ROOT
