@<TRIPOS>MOLECULE
U2J
   63    67     1     0     0
SMALL
bcc


@<TRIPOS>ATOM
      1 C19          7.4960   -10.1840    13.8590 ca         1 U2J      -0.101500
      2 C21          8.4530   -12.3410    14.3350 ca         1 U2J      -0.101500
      3 C18          8.5040    -9.5790    14.5870 ca         1 U2J      -0.091500
      4 C22          9.4460   -11.7350    15.0820 ca         1 U2J      -0.091500
      5 C7          10.3100    -6.1780    19.2150 cc         1 U2J      -0.135400
      6 C20          7.4700   -11.5700    13.7180 ca         1 U2J      -0.121500
      7 C17          9.4900   -10.3490    15.1970 ca         1 U2J      -0.127600
      8 C6          11.5650    -6.5110    19.6170 cd         1 U2J       0.283800
      9 C23          6.4080   -12.1810    12.9300 cc         1 U2J       0.451000
     10 C5          11.6570    -7.3700    17.6010 cc         1 U2J       0.425700
     11 C13         10.7930    -6.5940     9.5390 c          1 U2J       0.721500
     12 C14         12.9200    -7.3270     8.5640 c          1 U2J       0.834500
     13 C16         10.5500    -9.7330    16.0470 c          1 U2J       0.679700
     14 C12         11.5720    -5.5620    10.3080 c6         1 U2J      -0.175400
     15 C4          12.8510    -6.9930    15.4090 c5         1 U2J      -0.100400
     16 C2          11.2250    -8.2130    14.1690 c5         1 U2J       0.084000
     17 C1          12.2150    -8.0040    16.3690 c5         1 U2J       0.074400
     18 C11         12.9770    -6.0420    10.6330 c6         1 U2J       0.037700
     19 C3          12.6430    -7.6490    14.0520 c5         1 U2J       0.090700
     20 C9          14.0510    -6.3750    22.4210 c3         1 U2J       0.096300
     21 N10          6.2690   -13.4790    12.6430 na         1 U2J      -0.159400
     22 N2          12.3140    -7.1850    18.6930 nd         1 U2J      -0.636000
     23 N7           5.4000   -11.5570    12.3610 nd         1 U2J      -0.382000
     24 N9           5.1870   -13.6460    11.9050 nc         1 U2J      -0.199800
     25 N8           4.6780   -12.4880    11.7450 nd         1 U2J      -0.038000
     26 N6          13.5720    -6.5060     9.4160 ns         1 U2J      -0.551900
     27 N5          11.5260    -7.3900     8.6890 n          1 U2J      -0.510400
     28 N1          11.1660    -8.6300    15.5660 n          1 U2J      -0.487800
     29 N4          12.8160    -6.7350    12.9530 ns         1 U2J      -0.565900
     30 O4           9.5880    -6.6880     9.6340 o          1 U2J      -0.593500
     31 O3          13.4840    -7.9650     7.6970 o          1 U2J      -0.622500
     32 O5          10.8230   -10.1970    17.1430 o          1 U2J      -0.567100
     33 S1          10.0500    -6.7260    17.6190 ss         1 U2J      -0.139300
     34 H21          6.7290    -9.5770    13.3970 ha         1 U2J       0.149000
     35 H22          8.4560   -13.4200    14.2480 ha         1 U2J       0.149000
     36 H20          8.5030    -8.5010    14.6870 ha         1 U2J       0.149500
     37 H23         10.1970   -12.3460    15.5650 ha         1 U2J       0.149500
     38 H7           9.5450    -5.6590    19.7700 h4         1 U2J       0.200000
     39 H15         11.6360    -4.6610     9.6900 hc         1 U2J       0.088700
     40 H14         11.0140    -5.2930    11.2040 hc         1 U2J       0.088700
     41 H5          13.8960    -6.8150    15.6520 hc         1 U2J       0.067700
     42 H6          12.3220    -6.0370    15.4500 hc         1 U2J       0.067700
     43 H3          10.4940    -7.4300    13.9520 h1         1 U2J       0.068700
     44 H2          11.0530    -9.0470    13.4920 h1         1 U2J       0.068700
     45 H1          12.9560    -8.7450    16.6800 h1         1 U2J       0.095700
     46 H13         13.5640    -5.2030    11.0100 h1         1 U2J       0.079700
     47 H4          13.3480    -8.4770    13.9380 h1         1 U2J       0.088700
     48 H19          9.7830    -8.3050     8.0220 h1         1 U2J       0.058033
     49 H17         11.0410    -8.1650     6.7930 h1         1 U2J       0.058033
     50 H18         11.1860    -9.3740     8.0790 h1         1 U2J       0.058033
     51 H9          15.0640    -6.7540    22.3260 h1         1 U2J       0.040033
     52 H10         14.1020    -5.3130    22.6630 h1         1 U2J       0.040033
     53 H11         13.5670    -6.8910    23.2510 h1         1 U2J       0.040033
     54 H24          6.8410   -14.2740    12.8930 hn         1 U2J       0.337700
     55 H16         14.5780    -6.5690     9.3790 hn         1 U2J       0.336500
     56 H8          13.8360    -7.0960    20.4360 hn         1 U2J       0.338500
     57 H12         12.7870    -5.7450    13.1430 hn         1 U2J       0.320500
     58 C8          12.1090    -6.1890    20.9610 c          1 U2J       0.597600
     59 C10         12.9270    -7.1580    11.6850 c          1 U2J       0.630100
     60 C15         10.8500    -8.3660     7.8440 c3         1 U2J       0.087300
     61 N3          13.3620    -6.6010    21.1740 ns         1 U2J      -0.557900
     62 O1          11.4380    -5.5870    21.7900 o          1 U2J      -0.605100
     63 O2          12.9450    -8.3330    11.3650 o          1 U2J      -0.572100
@<TRIPOS>BOND
     1     1     3 ar  
     2     1     6 ar  
     3     1    34 1   
     4     2     4 ar  
     5     2     6 ar  
     6     2    35 1   
     7     3     7 ar  
     8     3    36 1   
     9     4     7 ar  
    10     4    37 1   
    11     5     8 2   
    12     5    33 1   
    13     5    38 1   
    14     6     9 1   
    15     7    13 1   
    16     8    22 1   
    17     8    58 1   
    18     9    21 1   
    19     9    23 2   
    20    10    17 1   
    21    10    22 2   
    22    10    33 1   
    23    11    14 1   
    24    11    27 1   
    25    11    30 2   
    26    12    26 1   
    27    12    27 1   
    28    12    31 2   
    29    13    28 1   
    30    13    32 2   
    31    14    18 1   
    32    14    39 1   
    33    14    40 1   
    34    15    17 1   
    35    15    19 1   
    36    15    41 1   
    37    15    42 1   
    38    16    19 1   
    39    16    28 1   
    40    16    43 1   
    41    16    44 1   
    42    17    28 1   
    43    17    45 1   
    44    18    26 1   
    45    18    46 1   
    46    18    59 1   
    47    19    29 1   
    48    19    47 1   
    49    20    51 1   
    50    20    52 1   
    51    20    53 1   
    52    20    61 1   
    53    21    24 1   
    54    21    54 1   
    55    23    25 1   
    56    24    25 2   
    57    26    55 1   
    58    27    60 1   
    59    29    57 1   
    60    29    59 1   
    61    48    60 1   
    62    49    60 1   
    63    50    60 1   
    64    56    61 1   
    65    58    61 1   
    66    58    62 2   
    67    59    63 2   
@<TRIPOS>SUBSTRUCTURE
     1 U2J         1 TEMP              0 ****  ****    0 ROOT
