@<TRIPOS>MOLECULE
U2K
   36    39     1     0     0
SMALL
bcc


@<TRIPOS>ATOM
      1 C01        -34.0720    37.6350   -19.7350 c3         1 U2K      -0.179100
      2 C02        -34.1080    39.0200   -20.3170 c          1 U2K       0.688100
      3 C05        -36.5680    38.9930   -20.1080 cc         1 U2K      -0.083400
      4 C06        -37.6090    39.8170   -20.3740 cd         1 U2K       0.006600
      5 C07        -37.0430    41.0140   -20.9540 ca         1 U2K      -0.089800
      6 C08        -35.6470    40.8490   -21.0000 ca         1 U2K       0.015600
      7 C09        -34.8150    41.8400   -21.5140 ca         1 U2K      -0.121000
      8 C10        -35.4140    42.9970   -21.9860 ca         1 U2K      -0.116000
      9 C11        -36.8000    43.1690   -21.9580 ca         1 U2K      -0.152000
     10 C12        -37.6230    42.1820   -21.4460 ca         1 U2K      -0.078000
     11 C13        -39.0140    39.5370   -20.1460 cd         1 U2K      -0.226100
     12 C14        -40.0130    40.3770   -19.7020 cc         1 U2K       0.115800
     13 C16        -41.5730    41.8350   -19.0780 c5         1 U2K       0.102400
     14 C17        -42.2150    40.4320   -19.0440 c5         1 U2K       0.031300
     15 C20        -39.7180    38.3070   -20.3270 cd         1 U2K       0.353600
     16 C21        -39.1450    37.0230   -20.8140 c3         1 U2K      -0.123400
     17 N04        -35.3640    39.5880   -20.4760 n          1 U2K      -0.255200
     18 N18        -41.1490    39.6900   -19.6660 na         1 U2K       0.049400
     19 N19        -41.0010    38.4090   -20.0230 nc         1 U2K      -0.502800
     20 O03        -33.1100    39.6260   -20.6340 o          1 U2K      -0.545100
     21 O15        -40.1490    41.6270   -19.2610 os         1 U2K      -0.269900
     22 H1         -33.0390    37.3010   -19.6820 hc         1 U2K       0.069367
     23 H2         -34.4960    37.6150   -18.7310 hc         1 U2K       0.069367
     24 H3         -34.6360    36.9290   -20.3460 hc         1 U2K       0.069367
     25 H4         -36.5840    38.0150   -19.6580 h4         1 U2K       0.165000
     26 H5         -33.7440    41.7280   -21.5530 ha         1 U2K       0.159000
     27 H6         -34.7880    43.7820   -22.3890 ha         1 U2K       0.130000
     28 H7         -37.2330    44.0820   -22.3440 ha         1 U2K       0.128000
     29 H8         -38.6960    42.3170   -21.4340 ha         1 U2K       0.137000
     30 H9         -41.7220    42.3950   -18.1580 h1         1 U2K       0.074200
     31 H10        -43.1390    40.3950   -19.6180 h1         1 U2K       0.077700
     32 H11        -39.9360    36.3390   -21.1160 hc         1 U2K       0.049367
     33 H12        -38.4860    37.1850   -21.6670 hc         1 U2K       0.049367
     34 H13        -38.5530    36.5270   -20.0420 hc         1 U2K       0.049367
     35 H14        -41.9460    42.4180   -19.9210 h1         1 U2K       0.074200
     36 H15        -42.4080    40.0740   -18.0310 h1         1 U2K       0.077700
@<TRIPOS>BOND
     1     1     2 1   
     2     1    22 1   
     3     1    23 1   
     4     1    24 1   
     5     2    17 1   
     6     2    20 2   
     7     3     4 2   
     8     3    17 1   
     9     3    25 1   
    10     4     5 1   
    11     4    11 1   
    12     5     6 ar  
    13     5    10 ar  
    14     6     7 ar  
    15     6    17 1   
    16     7     8 ar  
    17     7    26 1   
    18     8     9 ar  
    19     8    27 1   
    20     9    10 ar  
    21     9    28 1   
    22    10    29 1   
    23    11    12 2   
    24    11    15 1   
    25    12    18 1   
    26    12    21 1   
    27    13    14 1   
    28    13    21 1   
    29    13    30 1   
    30    13    35 1   
    31    14    18 1   
    32    14    31 1   
    33    14    36 1   
    34    15    16 1   
    35    15    19 2   
    36    16    32 1   
    37    16    33 1   
    38    16    34 1   
    39    18    19 1   
@<TRIPOS>SUBSTRUCTURE
     1 U2K         1 TEMP              0 ****  ****    0 ROOT
