@<TRIPOS>MOLECULE
U2K
   36    39     1     0     0
SMALL
No Charge or Current Charge


@<TRIPOS>ATOM
      1 C01        -34.1300    37.5260   -19.9360 c3         1 U2K      -0.179100
      2 C02        -34.1840    38.9950   -20.3650 c          1 U2K       0.621100
      3 C05        -36.7010    38.9680   -20.3840 cc         1 U2K      -0.133400
      4 C06        -37.7240    39.8600   -20.6390 cd         1 U2K       0.006600
      5 C07        -37.1030    41.1270   -21.0380 ca         1 U2K      -0.089800
      6 C08        -35.7250    40.9500   -20.9780 ca         1 U2K      -0.077000
      7 C09        -34.8420    41.9860   -21.3340 ca         1 U2K      -0.103000
      8 C10        -35.3890    43.2140   -21.7590 ca         1 U2K      -0.098000
      9 C11        -36.7880    43.3850   -21.8430 ca         1 U2K      -0.134000
     10 C12        -37.6600    42.3340   -21.4920 ca         1 U2K      -0.060000
     11 C13        -39.1150    39.4930   -20.4580 cd         1 U2K      -0.160800
     12 C14        -40.1500    40.3790   -20.4530 cc         1 U2K       0.065100
     13 C16        -41.3600    41.8010   -19.0830 c5         1 U2K       0.125600
     14 C17        -42.1440    40.4390   -19.2580 c5         1 U2K       0.060600
     15 C20        -39.7170    38.2130   -20.2290 cd         1 U2K       0.288300
     16 C21        -39.0730    36.8520   -20.2080 c3         1 U2K      -0.123400
     17 N04        -35.4610    39.6000   -20.5640 n          1 U2K      -0.095600
     18 N18        -41.2290    39.6660   -20.0610 na         1 U2K       0.070800
     19 N19        -41.0090    38.3120   -19.9290 nc         1 U2K      -0.502800
     20 O03        -33.1350    39.6080   -20.5260 o          1 U2K      -0.545100
     21 O15        -40.0910    41.5570   -19.7800 os         1 U2K      -0.293100
     22 H1         -33.1030    37.1600   -19.8260 hc         1 U2K       0.069367
     23 H2         -34.6970    37.4010   -19.0060 hc         1 U2K       0.069367
     24 H3         -34.6950    36.9190   -20.6520 hc         1 U2K       0.069367
     25 H4         -36.7090    37.9430   -20.0440 h4         1 U2K       0.215000
     26 H5         -33.7630    41.8620   -21.2970 ha         1 U2K       0.141000
     27 H6         -34.7270    44.0310   -22.0390 ha         1 U2K       0.112000
     28 H7         -37.1970    44.3300   -22.1930 ha         1 U2K       0.110000
     29 H8         -38.7320    42.4640   -21.6000 ha         1 U2K       0.119000
     30 H9         -41.1630    42.0470   -18.0320 h1         1 U2K       0.074200
     31 H10        -43.0980    40.5780   -19.7800 h1         1 U2K       0.077700
     32 H11        -39.8240    36.0550   -20.2610 hc         1 U2K       0.049367
     33 H12        -38.4020    36.7200   -21.0640 hc         1 U2K       0.049367
     34 H13        -38.5010    36.7030   -19.2850 hc         1 U2K       0.049367
     35 H14        -41.8820    42.6390   -19.5630 h1         1 U2K       0.074200
     36 H15        -42.3320    39.9500   -18.2950 h1         1 U2K       0.077700
@<TRIPOS>BOND
     1     1     2 1   
     2     1    22 1   
     3     1    23 1   
     4     1    24 1   
     5     2    17 1   
     6     2    20 2   
     7     3     4 2   
     8     3    17 1   
     9     3    25 1   
    10     4     5 1   
    11     4    11 1   
    12     5     6 ar  
    13     5    10 ar  
    14     6     7 ar  
    15     6    17 1   
    16     7     8 ar  
    17     7    26 1   
    18     8     9 ar  
    19     8    27 1   
    20     9    10 ar  
    21     9    28 1   
    22    10    29 1   
    23    11    12 2   
    24    11    15 1   
    25    12    18 1   
    26    12    21 1   
    27    13    14 1   
    28    13    21 1   
    29    13    30 1   
    30    13    35 1   
    31    14    18 1   
    32    14    31 1   
    33    14    36 1   
    34    15    16 1   
    35    15    19 2   
    36    16    32 1   
    37    16    33 1   
    38    16    34 1   
    39    18    19 1   
@<TRIPOS>SUBSTRUCTURE
     1 U2K         1 TEMP              0 ****  ****    0 ROOT
