@<TRIPOS>MOLECULE
U2M
   25    24     1     0     0
SMALL
bcc


@<TRIPOS>ATOM
      1 N           74.1290    32.3640    -0.9140 n8         1 U2M      -0.861800
      2 CA          72.8310    32.5440    -1.5570 c3         1 U2M       0.021500
      3 C           72.4560    34.0400    -1.6860 c          1 U2M       0.925600
      4 O           71.7430    34.3370    -2.6690 o          1 U2M      -0.832300
      5 CB          71.7850    31.7940    -0.7260 c3         1 U2M      -0.045400
      6 CG          70.3750    31.7800    -1.3020 c3         1 U2M      -0.071400
      7 CD          69.4490    30.8400    -0.5390 c3         1 U2M      -0.074400
      8 CE          68.0150    30.8750    -1.0540 c3         1 U2M      -0.072400
      9 CZ          67.1260    29.8870    -0.3170 c3         1 U2M       0.048700
     10 SH          65.4230    30.0010    -0.9650 sh         1 U2M      -0.429900
     11 H1          74.4070    31.3940    -1.0090 hn         1 U2M       0.307800
     12 H2          74.8330    32.8970    -1.4080 hn         1 U2M       0.307800
     13 H4          72.8060    32.1190    -2.5720 h1         1 U2M      -0.001300
     14 H6          72.1260    30.7570    -0.6120 hc         1 U2M       0.019200
     15 H7          71.7690    32.2180     0.2840 hc         1 U2M       0.019200
     16 H8          69.9560    32.7890    -1.2910 hc         1 U2M       0.054200
     17 H9          70.4070    31.4760    -2.3530 hc         1 U2M       0.054200
     18 H10         69.8330    29.8160    -0.6060 hc         1 U2M       0.025700
     19 H11         69.4580    31.0990     0.5250 hc         1 U2M       0.025700
     20 H12         68.0040    30.6490    -2.1250 hc         1 U2M       0.056200
     21 H13         67.6150    31.8870    -0.9440 hc         1 U2M       0.056200
     22 H14         67.1190    30.1050     0.7520 h1         1 U2M       0.051200
     23 H15         67.4950    28.8700    -0.4540 h1         1 U2M       0.051200
     24 H16         64.8660    29.0650    -0.1880 hs         1 U2M       0.196800
     25 OXT         72.8650    34.8190    -0.8030 o          1 U2M      -0.832300
@<TRIPOS>BOND
     1     1     2 1   
     2     1    11 1   
     3     1    12 1   
     4     2     3 1   
     5     2     5 1   
     6     2    13 1   
     7     3     4 1   
     8     3    25 1   
     9     5     6 1   
    10     5    14 1   
    11     5    15 1   
    12     6     7 1   
    13     6    16 1   
    14     6    17 1   
    15     7     8 1   
    16     7    18 1   
    17     7    19 1   
    18     8     9 1   
    19     8    20 1   
    20     8    21 1   
    21     9    10 1   
    22     9    22 1   
    23     9    23 1   
    24    10    24 1   
@<TRIPOS>SUBSTRUCTURE
     1 U2M         1 TEMP              0 ****  ****    0 ROOT
