@<TRIPOS>MOLECULE
U2M
   25    24     1     0     0
SMALL
No Charge or Current Charge


@<TRIPOS>ATOM
      1 N           74.2530    32.3530    -1.0260 n8         1 U2M      -0.861800
      2 CA          72.8520    32.6110    -1.5240 c3         1 U2M       0.021500
      3 C           72.3950    34.1380    -1.6260 c          1 U2M       0.925600
      4 O           72.3600    34.6630    -2.7350 o          1 U2M      -0.832300
      5 CB          71.8440    31.7440    -0.7190 c3         1 U2M      -0.045400
      6 CG          70.4080    31.7490    -1.2950 c3         1 U2M      -0.071400
      7 CD          69.4400    30.8350    -0.5100 c3         1 U2M      -0.074400
      8 CE          68.0060    30.8350    -1.0840 c3         1 U2M      -0.072400
      9 CZ          67.0460    29.9220    -0.2990 c3         1 U2M       0.048700
     10 SH          65.3260    29.9170    -0.9820 sh         1 U2M      -0.429900
     11 H1          74.4550    31.3500    -1.0890 hn         1 U2M       0.307800
     12 H2          74.9250    32.7950    -1.6610 hn         1 U2M       0.307800
     13 H4          72.8420    32.2210    -2.5510 h1         1 U2M      -0.001300
     14 H6          72.2050    30.7080    -0.6950 hc         1 U2M       0.019200
     15 H7          71.8150    32.0910     0.3220 hc         1 U2M       0.019200
     16 H8          70.0120    32.7720    -1.2890 hc         1 U2M       0.054200
     17 H9          70.4400    31.4240    -2.3420 hc         1 U2M       0.054200
     18 H10         69.8290    29.8090    -0.5160 hc         1 U2M       0.025700
     19 H11         69.4080    31.1590     0.5380 hc         1 U2M       0.025700
     20 H12         68.0340    30.5090    -2.1310 hc         1 U2M       0.056200
     21 H13         67.6120    31.8590    -1.0760 hc         1 U2M       0.056200
     22 H14         67.0000    30.2520     0.7470 h1         1 U2M       0.051200
     23 H15         67.4260    28.8920    -0.3150 h1         1 U2M       0.051200
     24 H16         64.8080    29.0490    -0.0780 hs         1 U2M       0.196800
     25 OXT         72.1490    34.7650    -0.5980 o          1 U2M      -0.832300
@<TRIPOS>BOND
     1     1     2 1   
     2     1    11 1   
     3     1    12 1   
     4     2     3 1   
     5     2     5 1   
     6     2    13 1   
     7     3     4 1   
     8     3    25 1   
     9     5     6 1   
    10     5    14 1   
    11     5    15 1   
    12     6     7 1   
    13     6    16 1   
    14     6    17 1   
    15     7     8 1   
    16     7    18 1   
    17     7    19 1   
    18     8     9 1   
    19     8    20 1   
    20     8    21 1   
    21     9    10 1   
    22     9    22 1   
    23     9    23 1   
    24    10    24 1   
@<TRIPOS>SUBSTRUCTURE
     1 U2M         1 TEMP              0 ****  ****    0 ROOT
