@<TRIPOS>MOLECULE
U2O
   39    40     1     0     0
SMALL
No Charge or Current Charge


@<TRIPOS>ATOM
      1 C1         -11.1520    15.6390   -26.5930 c3         1 U2O      -0.090100
      2 C10         -8.1320    20.9350   -28.5120 ca         1 U2O       0.090000
      3 C11         -6.8170    19.2240   -27.7300 ca         1 U2O       0.405900
      4 C12         -5.1310    17.5000   -26.8550 c3         1 U2O       0.263000
      5 C13         -5.5540    17.4770   -25.4010 c2         1 U2O      -0.236200
      6 C14         -4.9580    18.1440   -24.3970 c2         1 U2O      -0.317000
      7 C15         -8.9950    15.5850   -27.9190 c          1 U2O       0.623100
      8 C2          -9.8800    16.4350   -26.9730 c3         1 U2O      -0.133700
      9 C3         -10.2460    17.8580   -27.5170 c3         1 U2O      -0.140700
     10 C4          -9.0780    18.8200   -27.7870 ca         1 U2O       0.180300
     11 C5          -9.2770    20.1250   -28.3050 ca         1 U2O      -0.196000
     12 C6         -10.5620    20.6320   -28.6130 ca         1 U2O      -0.053000
     13 C7         -10.7020    21.9320   -29.1250 ca         1 U2O       0.089000
     14 C8          -9.5700    22.7340   -29.3330 ca         1 U2O      -0.069000
     15 C9          -8.2930    22.2350   -29.0270 ca         1 U2O      -0.103000
     16 N1          -6.9020    20.4690   -28.2200 nb         1 U2O      -0.264000
     17 N3          -7.8370    18.3810   -27.5000 nb         1 U2O      -0.227000
     18 N4          -9.3140    15.6520   -29.2730 ns         1 U2O      -0.380400
     19 O1          -8.3990    15.1620   -30.2850 oh         1 U2O      -0.433100
     20 O2          -8.0310    14.9500   -27.5080 o          1 U2O      -0.577100
     21 Cl1        -12.3010    22.5570   -29.5070 cl         1 U2O      -0.201000
     22 H1         -11.7450    16.1850   -25.8480 hc         1 U2O       0.044033
     23 H2         -11.7830    15.4640   -27.4720 hc         1 U2O       0.044033
     24 H3         -10.8850    14.6660   -26.1630 hc         1 U2O       0.044033
     25 H4          -5.5890    16.6580   -27.3970 h1         1 U2O       0.073200
     26 H5          -4.0400    17.3730   -26.9170 h1         1 U2O       0.073200
     27 H6          -6.4240    16.8460   -25.2100 ha         1 U2O       0.180000
     28 H7          -5.3230    18.0770   -23.3710 ha         1 U2O       0.161500
     29 H8          -4.0890    18.7810   -24.5680 ha         1 U2O       0.161500
     30 H9          -9.3110    16.5530   -26.0420 hc         1 U2O       0.096700
     31 H10        -10.9070    18.3330   -26.7820 hc         1 U2O       0.063700
     32 H11        -10.8490    17.7500   -28.4270 hc         1 U2O       0.063700
     33 H12        -11.4580    20.0360   -28.4610 ha         1 U2O       0.125000
     34 H13         -9.6830    23.7400   -29.7300 ha         1 U2O       0.132000
     35 H14         -7.4190    22.8630   -29.1890 ha         1 U2O       0.138000
     36 H15         -4.7970    19.4720   -27.6110 hn         1 U2O       0.506000
     37 H16        -10.0130    16.3220   -29.5860 hn         1 U2O       0.328500
     38 H17         -8.9650    14.5850   -30.8510 ho         1 U2O       0.446000
     39 N2          -5.5300    18.7810   -27.4560 nu         1 U2O      -0.913100
@<TRIPOS>BOND
     1     1     8 1   
     2     1    22 1   
     3     1    23 1   
     4     1    24 1   
     5     2    11 ar  
     6     2    15 ar  
     7     2    16 ar  
     8     3    16 ar  
     9     3    17 ar  
    10     3    39 1   
    11     4     5 1   
    12     4    25 1   
    13     4    26 1   
    14     4    39 1   
    15     5     6 2   
    16     5    27 1   
    17     6    28 1   
    18     6    29 1   
    19     7     8 1   
    20     7    18 1   
    21     7    20 2   
    22     8     9 1   
    23     8    30 1   
    24     9    10 1   
    25     9    31 1   
    26     9    32 1   
    27    10    11 ar  
    28    10    17 ar  
    29    11    12 ar  
    30    12    13 ar  
    31    12    33 1   
    32    13    14 ar  
    33    13    21 1   
    34    14    15 ar  
    35    14    34 1   
    36    15    35 1   
    37    18    19 1   
    38    18    37 1   
    39    19    38 1   
    40    36    39 1   
@<TRIPOS>SUBSTRUCTURE
     1 U2O         1 TEMP              0 ****  ****    0 ROOT
