@<TRIPOS>MOLECULE
U2O
   39    40     1     0     0
SMALL
abcg2


@<TRIPOS>ATOM
      1 C1         -11.0920    15.7010   -26.6740 c3         1 U2O      -0.090100
      2 C10         -8.0800    20.8870   -28.4980 ca         1 U2O       0.090000
      3 C11         -6.7770    19.1580   -27.8290 ca         1 U2O       0.405900
      4 C12         -5.3040    17.3460   -27.0230 c3         1 U2O       0.263000
      5 C13         -5.4280    17.2730   -25.5290 c2         1 U2O      -0.236200
      6 C14         -5.7090    18.2820   -24.7150 c2         1 U2O      -0.317000
      7 C15         -8.8910    15.6960   -27.8280 c          1 U2O       0.623100
      8 C2          -9.8250    16.5160   -26.9500 c3         1 U2O      -0.133700
      9 C3         -10.1950    17.8990   -27.4760 c3         1 U2O      -0.140700
     10 C4          -9.0350    18.8040   -27.7720 ca         1 U2O       0.180300
     11 C5          -9.2480    20.1330   -28.2490 ca         1 U2O      -0.196000
     12 C6         -10.5210    20.6930   -28.4720 ca         1 U2O      -0.053000
     13 C7         -10.6140    21.9760   -28.9360 ca         1 U2O       0.089000
     14 C8          -9.4630    22.7420   -29.1970 ca         1 U2O      -0.069000
     15 C9          -8.2220    22.2080   -28.9830 ca         1 U2O      -0.103000
     16 N1          -6.8480    20.3900   -28.2850 nb         1 U2O      -0.264000
     17 N3          -7.8360    18.3450   -27.5730 nb         1 U2O      -0.227000
     18 N4          -9.1080    15.8070   -29.1570 ns         1 U2O      -0.380400
     19 O1          -8.2240    15.2380   -30.0270 oh         1 U2O      -0.433100
     20 O2          -8.0860    14.9130   -27.3580 o          1 U2O      -0.577100
     21 CL1        -12.1690    22.6890   -29.2150 cl         1 U2O      -0.201000
     22 H1         -11.7240    16.2170   -25.9520 hc         1 U2O       0.044033
     23 H2         -11.6740    15.5500   -27.5850 hc         1 U2O       0.044033
     24 H3         -10.8480    14.7230   -26.2610 hc         1 U2O       0.044033
     25 H4          -5.9650    16.6020   -27.4710 h1         1 U2O       0.073200
     26 H5          -4.2920    17.0500   -27.3080 h1         1 U2O       0.073200
     27 H6          -5.2580    16.2840   -25.1150 ha         1 U2O       0.180000
     28 H7          -5.7740    18.1340   -23.6460 ha         1 U2O       0.161500
     29 H8          -5.8840    19.2880   -25.0770 ha         1 U2O       0.161500
     30 H9          -9.2840    16.6410   -26.0100 hc         1 U2O       0.096700
     31 H10        -10.8220    18.3850   -26.7220 hc         1 U2O       0.063700
     32 H11        -10.8390    17.8300   -28.3600 hc         1 U2O       0.063700
     33 H12        -11.4180    20.1200   -28.2790 ha         1 U2O       0.125000
     34 H13         -9.5620    23.7550   -29.5650 ha         1 U2O       0.132000
     35 H14         -7.3320    22.7910   -29.1790 ha         1 U2O       0.138000
     36 H15         -4.7780    19.2670   -27.7210 hn         1 U2O       0.506000
     37 H16         -9.6370    16.5640   -29.5630 hn         1 U2O       0.328500
     38 H17         -8.6190    14.3990   -30.2990 ho         1 U2O       0.446000
     39 N2          -5.5560    18.6370   -27.6030 nu         1 U2O      -0.913100
@<TRIPOS>BOND
     1     1     8 1   
     2     1    22 1   
     3     1    23 1   
     4     1    24 1   
     5     2    11 ar  
     6     2    15 ar  
     7     2    16 ar  
     8     3    16 ar  
     9     3    17 ar  
    10     3    39 1   
    11     4     5 1   
    12     4    25 1   
    13     4    26 1   
    14     4    39 1   
    15     5     6 2   
    16     5    27 1   
    17     6    28 1   
    18     6    29 1   
    19     7     8 1   
    20     7    18 1   
    21     7    20 2   
    22     8     9 1   
    23     8    30 1   
    24     9    10 1   
    25     9    31 1   
    26     9    32 1   
    27    10    11 ar  
    28    10    17 ar  
    29    11    12 ar  
    30    12    13 ar  
    31    12    33 1   
    32    13    14 ar  
    33    13    21 1   
    34    14    15 ar  
    35    14    34 1   
    36    15    35 1   
    37    18    19 1   
    38    18    37 1   
    39    19    38 1   
    40    36    39 1   
@<TRIPOS>SUBSTRUCTURE
     1 U2O         1 TEMP              0 ****  ****    0 ROOT
