@<TRIPOS>MOLECULE
U2Q
   19    19     1     0     0
SMALL
No Charge or Current Charge


@<TRIPOS>ATOM
      1 N12          1.6250    -4.0560     5.1920 no         1 U2Q       0.703200
      2 C01          1.4140    -6.3570     6.1240 ca         1 U2Q       0.005000
      3 C02          2.0290    -7.4910     6.6680 ca         1 U2Q      -0.241000
      4 C03          3.4210    -7.5040     6.8200 ca         1 U2Q       0.399900
      5 C05          3.6270    -5.3630     5.9330 ca         1 U2Q       0.477300
      6 C07          6.4290    -4.6050     5.8800 c3         1 U2Q      -0.135400
      7 C08          7.4950    -3.5710     5.5070 c          1 U2Q       0.735000
      8 C11          2.2320    -5.2720     5.7590 ca         1 U2Q      -0.277200
      9 N04          4.2070    -6.4690     6.4570 nb         1 U2Q      -0.705000
     10 O09          7.7910    -2.7230     6.3370 o          1 U2Q      -0.707500
     11 O10          8.0060    -3.6440     4.3980 o          1 U2Q      -0.707500
     12 O13          0.7500    -4.2100     4.3320 o          1 U2Q      -0.416000
     13 O14          1.8280    -2.9880     5.7790 o          1 U2Q      -0.416000
     14 H1           0.3320    -6.3200     5.9990 ha         1 U2Q       0.137000
     15 H2           1.4410    -8.3520     6.9710 ha         1 U2Q       0.118000
     16 H3           3.9260    -8.3730     7.2400 h4         1 U2Q       0.012100
     17 H4           6.6560    -5.5450     5.3640 h1         1 U2Q       0.062200
     18 H5           6.4690    -4.7760     6.9620 h1         1 U2Q       0.062200
     19 S06          4.7270    -4.0360     5.4070 ss         1 U2Q      -0.107300
@<TRIPOS>BOND
     1     1     8 1   
     2     1    12 1   
     3     1    13 1   
     4     2     3 ar  
     5     2     8 ar  
     6     2    14 1   
     7     3     4 ar  
     8     3    15 1   
     9     4     9 ar  
    10     4    16 1   
    11     5     8 ar  
    12     5     9 ar  
    13     5    19 1   
    14     6     7 1   
    15     6    17 1   
    16     6    18 1   
    17     6    19 1   
    18     7    10 1   
    19     7    11 1   
@<TRIPOS>SUBSTRUCTURE
     1 U2Q         1 TEMP              0 ****  ****    0 ROOT
