@<TRIPOS>MOLECULE
U2Q
   19    19     1     0     0
SMALL
bcc


@<TRIPOS>ATOM
      1 N12          1.5750    -4.0110     5.4420 no         1 U2Q       0.323200
      2 C01          1.4800    -6.3320     6.1270 ca         1 U2Q      -0.013000
      3 C02          2.1020    -7.5020     6.5050 ca         1 U2Q      -0.324300
      4 C03          3.4870    -7.4930     6.5750 ca         1 U2Q       0.465200
      5 C05          3.6620    -5.2880     5.9340 ca         1 U2Q       0.542600
      6 C07          6.3530    -4.6810     5.8760 c3         1 U2Q      -0.183300
      7 C08          7.4210    -3.6010     5.5920 c          1 U2Q       0.945600
      8 C11          2.2550    -5.2170     5.8370 ca         1 U2Q      -0.342500
      9 N04          4.2290    -6.4350     6.3020 nb         1 U2Q      -0.705000
     10 O09          7.0050    -2.4880     5.2250 o          1 U2Q      -0.812800
     11 O10          8.5950    -3.9670     5.7630 o          1 U2Q      -0.812800
     12 O13          0.3670    -4.0250     5.3630 o          1 U2Q      -0.226000
     13 O14          2.2510    -3.0340     5.2070 o          1 U2Q      -0.226000
     14 H1           0.4030    -6.2820     6.0560 ha         1 U2Q       0.155000
     15 H2           1.5350    -8.3900     6.7390 ha         1 U2Q       0.136000
     16 H3           4.0260    -8.3870     6.8680 h4         1 U2Q       0.012100
     17 H4           6.5000    -5.5430     5.2250 h1         1 U2Q       0.062200
     18 H5           6.4340    -5.0370     6.9040 h1         1 U2Q       0.062200
     19 S06          4.7250    -3.9410     5.5890 ss         1 U2Q      -0.059400
@<TRIPOS>BOND
     1     1     8 1   
     2     1    12 1   
     3     1    13 1   
     4     2     3 ar  
     5     2     8 ar  
     6     2    14 1   
     7     3     4 ar  
     8     3    15 1   
     9     4     9 ar  
    10     4    16 1   
    11     5     8 ar  
    12     5     9 ar  
    13     5    19 1   
    14     6     7 1   
    15     6    17 1   
    16     6    18 1   
    17     6    19 1   
    18     7    10 1   
    19     7    11 1   
@<TRIPOS>SUBSTRUCTURE
     1 U2Q         1 TEMP              0 ****  ****    0 ROOT
