@<TRIPOS>MOLECULE
U2R
   18    18     1     0     0
SMALL
abcg2


@<TRIPOS>ATOM
      1 C4           0.2440    -3.8610   -51.4860 ca         1 U2R      -0.117500
      2 C5           1.4340    -3.7800   -50.7930 ca         1 U2R       0.084000
      3 C6           2.5320    -3.1060   -51.2980 ca         1 U2R      -0.117500
      4 C7           2.4270    -2.4980   -52.5400 ca         1 U2R      -0.150500
      5 C           -1.0810    -1.0360   -54.7820 c          1 U2R       0.693000
      6 O           -2.1600    -1.1930   -55.4050 o          1 U2R      -0.718000
      7 C1           0.0530    -1.9680   -55.2660 c3         1 U2R       0.007600
      8 C2           1.2340    -2.5640   -53.2670 ca         1 U2R       0.185100
      9 C3           0.1400    -3.2470   -52.7330 ca         1 U2R      -0.150500
     10 F            1.5330    -4.3780   -49.5710 f          1 U2R      -0.213000
     11 O1          -0.8370    -0.2190   -53.8680 o          1 U2R      -0.718000
     12 O2           1.2440    -1.9520   -54.4810 os         1 U2R      -0.341100
     13 H1          -0.5980    -4.3920   -51.0600 ha         1 U2R       0.112000
     14 H2           3.4520    -3.0590   -50.7290 ha         1 U2R       0.112000
     15 H3           3.2680    -1.9650   -52.9620 ha         1 U2R       0.130000
     16 H4          -0.3280    -2.9870   -55.3640 h1         1 U2R       0.035700
     17 H5           0.3630    -1.6310   -56.2550 h1         1 U2R       0.035700
     18 H6          -0.7970    -3.3050   -53.2650 ha         1 U2R       0.130000
@<TRIPOS>BOND
     1     1     2 ar  
     2     1     9 ar  
     3     1    13 1   
     4     2     3 ar  
     5     2    10 1   
     6     3     4 ar  
     7     3    14 1   
     8     4     8 ar  
     9     4    15 1   
    10     5     6 1   
    11     5     7 1   
    12     5    11 1   
    13     7    12 1   
    14     7    16 1   
    15     7    17 1   
    16     8     9 ar  
    17     8    12 1   
    18     9    18 1   
@<TRIPOS>SUBSTRUCTURE
     1 U2R         1 TEMP              0 ****  ****    0 ROOT
