@<TRIPOS>MOLECULE
U2R
   18    18     1     0     0
SMALL
No Charge or Current Charge


@<TRIPOS>ATOM
      1 C4           0.2530    -3.8970   -51.4580 ca         1 U2R      -0.117500
      2 C5           1.4440    -3.7860   -50.7220 ca         1 U2R       0.084000
      3 C6           2.5420    -3.0890   -51.2510 ca         1 U2R      -0.117500
      4 C7           2.4460    -2.4980   -52.5240 ca         1 U2R      -0.150500
      5 C           -1.0750    -0.9960   -54.8120 c          1 U2R       0.693000
      6 O           -2.1700    -1.0460   -55.3560 o          1 U2R      -0.718000
      7 C1           0.0350    -1.9570   -55.3430 c3         1 U2R       0.007600
      8 C2           1.2570    -2.5990   -53.2700 ca         1 U2R       0.185100
      9 C3           0.1570    -3.3070   -52.7330 ca         1 U2R      -0.150500
     10 F            1.5340    -4.3540   -49.5000 f          1 U2R      -0.213000
     11 O1          -0.8280    -0.2320   -53.8870 o          1 U2R      -0.718000
     12 O2           1.2300    -2.0060   -54.5190 os         1 U2R      -0.341100
     13 H1          -0.5920    -4.4410   -51.0430 ha         1 U2R       0.112000
     14 H2           3.4620    -3.0070   -50.6770 ha         1 U2R       0.112000
     15 H3           3.2950    -1.9590   -52.9370 ha         1 U2R       0.130000
     16 H4          -0.3950    -2.9590   -55.4640 h1         1 U2R       0.035700
     17 H5           0.3020    -1.6000   -56.3450 h1         1 U2R       0.035700
     18 H6          -0.7720    -3.4090   -53.2850 ha         1 U2R       0.130000
@<TRIPOS>BOND
     1     1     2 ar  
     2     1     9 ar  
     3     1    13 1   
     4     2     3 ar  
     5     2    10 1   
     6     3     4 ar  
     7     3    14 1   
     8     4     8 ar  
     9     4    15 1   
    10     5     6 1   
    11     5     7 1   
    12     5    11 1   
    13     7    12 1   
    14     7    16 1   
    15     7    17 1   
    16     8     9 ar  
    17     8    12 1   
    18     9    18 1   
@<TRIPOS>SUBSTRUCTURE
     1 U2R         1 TEMP              0 ****  ****    0 ROOT
