@<TRIPOS>MOLECULE
U2S
   41    43     1     0     0
SMALL
No Charge or Current Charge


@<TRIPOS>ATOM
      1 C4          -4.2980     1.8150    -0.1730 c          1 U2S       0.590200
      2 C5          -4.4090     0.8880     0.9480 cc         1 U2S      -0.376200
      3 C6          -3.4150    -0.0140     1.2470 cd         1 U2S       0.005600
      4 N1          -2.2660    -0.0540     0.4580 n          1 U2S      -0.326000
      5 N3          -3.1420     1.6840    -0.8700 ns         1 U2S      -0.471500
      6 OAM          5.1610     2.0930    -0.2950 os         1 U2S      -0.452000
      7 CAK          3.8290     2.2210    -0.8470 c6         1 U2S       0.154100
      8 CAM          3.1370     0.8270    -0.9250 c6         1 U2S       0.128300
      9 CAJ          5.1620     1.5020     1.0270 c6         1 U2S       0.154100
     10 CAL          4.5020     0.0910     0.9870 c6         1 U2S       0.128300
     11 NBA          3.1240     0.1360     0.4050 n3         1 U2S      -0.709600
     12 C8           2.4700    -1.2060     0.3870 c3         1 U2S       0.174800
     13 C7           0.9790    -1.2430    -0.0620 c5         1 U2S       0.169300
     14 O4           0.1510    -0.3910     0.7770 os         1 U2S      -0.421000
     15 C3           0.3020    -2.6430     0.0460 c5         1 U2S       0.143300
     16 O3           0.7130    -3.5840    -0.9540 oh         1 U2S      -0.699000
     17 C2          -1.1780    -2.2050    -0.1320 c5         1 U2S       0.087300
     18 O2          -2.1070    -3.2570     0.2040 oh         1 U2S      -0.711000
     19 C1          -1.1670    -0.9820     0.8500 c5         1 U2S       0.310700
     20 O1          -5.1490     2.6320    -0.4730 o          1 U2S      -0.522000
     21 C9          -2.1150     0.8190    -0.6480 c          1 U2S       0.620000
     22 O5          -1.1580     0.8140    -1.4040 o          1 U2S      -0.552000
     23 H5          -5.3200     0.9600     1.5310 ha         1 U2S       0.225000
     24 H6          -3.4410    -0.7200     2.0760 h4         1 U2S       0.206000
     25 HN3         -3.0300     2.3010    -1.6570 hn         1 U2S       0.342500
     26 HAKA         3.8950     2.6630    -1.8510 h1         1 U2S       0.052450
     27 HAM          2.1120     0.9770    -1.2950 h1         1 U2S       0.041200
     28 HAMA         3.6640     0.2130    -1.6700 h1         1 U2S       0.041200
     29 HAJ          6.1970     1.4210     1.3850 h1         1 U2S       0.052450
     30 HAJA         4.6100     2.1560     1.7170 h1         1 U2S       0.052450
     31 HAL          5.1440    -0.5800     0.3970 h1         1 U2S       0.041200
     32 HALA         4.4710    -0.3110     2.0100 h1         1 U2S       0.041200
     33 H7           3.0330    -1.8790    -0.2740 h1         1 U2S       0.045200
     34 H5'A         2.5170    -1.6430     1.3930 h1         1 U2S       0.045200
     35 H4           0.9150    -0.8820    -1.0960 h1         1 U2S       0.088700
     36 H3           0.4620    -3.0650     1.0490 h1         1 U2S       0.052700
     37 HO3          0.0280    -4.2950    -0.9510 ho         1 U2S       0.519000
     38 H2          -1.3440    -1.8650    -1.1650 h1         1 U2S       0.085700
     39 HO2         -3.0140    -2.9400    -0.0270 ho         1 U2S       0.518000
     40 H1          -1.3550    -1.3120     1.8790 h2         1 U2S       0.072700
     41 HAK          3.2370     2.8980    -0.2130 h1         1 U2S       0.052450
@<TRIPOS>BOND
     1     1     2 1   
     2     1     5 1   
     3     1    20 2   
     4     2     3 2   
     5     2    23 1   
     6     3     4 1   
     7     3    24 1   
     8     4    19 1   
     9     4    21 1   
    10     5    21 1   
    11     5    25 1   
    12     6     7 1   
    13     6     9 1   
    14     7     8 1   
    15     7    26 1   
    16     7    41 1   
    17     8    11 1   
    18     8    27 1   
    19     8    28 1   
    20     9    10 1   
    21     9    29 1   
    22     9    30 1   
    23    10    11 1   
    24    10    31 1   
    25    10    32 1   
    26    11    12 1   
    27    12    13 1   
    28    12    33 1   
    29    12    34 1   
    30    13    14 1   
    31    13    15 1   
    32    13    35 1   
    33    14    19 1   
    34    15    16 1   
    35    15    17 1   
    36    15    36 1   
    37    16    37 1   
    38    17    18 1   
    39    17    19 1   
    40    17    38 1   
    41    18    39 1   
    42    19    40 1   
    43    21    22 2   
@<TRIPOS>SUBSTRUCTURE
     1 U2S         1 TEMP              0 ****  ****    0 ROOT
