@<TRIPOS>MOLECULE
U2S
   41    43     1     0     0
SMALL
bcc


@<TRIPOS>ATOM
      1 C4          -4.1990     1.9190     0.1400 c          1 U2S       0.732700
      2 C5          -4.0720     1.1600     1.3590 cc         1 U2S      -0.326200
      3 C6          -3.0900     0.2520     1.4710 cd         1 U2S       0.055600
      4 N1          -2.1890    -0.0170     0.4780 n          1 U2S      -0.393000
      5 N3          -3.2390     1.5990    -0.8090 ns         1 U2S      -0.605500
      6 OAM          5.0450     2.0410    -0.0640 os         1 U2S      -0.405600
      7 CAK          3.9720     1.9440    -0.9750 c6         1 U2S       0.130900
      8 CAM          3.4090     0.5370    -1.0280 c6         1 U2S       0.128300
      9 CAJ          4.6480     1.6290     1.2260 c6         1 U2S       0.130900
     10 CAL          4.1010     0.2140     1.2190 c6         1 U2S       0.128300
     11 NBA          2.9840     0.1200     0.2960 n3         1 U2S      -0.709600
     12 C8           2.3750    -1.1930     0.3020 c3         1 U2S       0.174800
     13 C7           0.9620    -1.1840    -0.2420 c5         1 U2S       0.146100
     14 O4           0.1210    -0.4280     0.6280 os         1 U2S      -0.374600
     15 C3           0.3210    -2.5650    -0.2970 c5         1 U2S       0.120100
     16 O3           0.7300    -3.2480    -1.4460 oh         1 U2S      -0.576800
     17 C2          -1.1610    -2.2200    -0.2410 c5         1 U2S       0.064100
     18 O2          -1.9230    -3.2900     0.2430 oh         1 U2S      -0.588800
     19 C1          -1.1440    -1.0120     0.7090 c5         1 U2S       0.287500
     20 O1          -5.0370     2.7710    -0.0900 o          1 U2S      -0.597500
     21 C9          -2.2320     0.6740    -0.7180 c          1 U2S       0.829500
     22 O5          -1.4490     0.4840    -1.6240 o          1 U2S      -0.627500
     23 H5          -4.7580     1.3310     2.1730 ha         1 U2S       0.175000
     24 H6          -2.9650    -0.3260     2.3770 h4         1 U2S       0.156000
     25 HN3         -3.2760     2.1070    -1.6850 hn         1 U2S       0.342500
     26 HAKA         4.3510     2.2320    -1.9560 h1         1 U2S       0.052450
     27 HAM          2.5620     0.5310    -1.7150 h1         1 U2S       0.041200
     28 HAMA         4.1670    -0.1490    -1.4450 h1         1 U2S       0.041200
     29 HAJ          5.5240     1.6900     1.8730 h1         1 U2S       0.052450
     30 HAJA         3.8820     2.3080     1.6270 h1         1 U2S       0.052450
     31 HAL          4.9090    -0.4950     0.9660 h1         1 U2S       0.041200
     32 HALA         3.7610    -0.0340     2.2280 h1         1 U2S       0.041200
     33 H7           2.9650    -1.9280    -0.2730 h1         1 U2S       0.045200
     34 H5'A         2.3420    -1.5590     1.3320 h1         1 U2S       0.045200
     35 H4           0.9350    -0.7450    -1.2470 h1         1 U2S       0.088700
     36 H3           0.5860    -3.1220     0.6160 h1         1 U2S       0.052700
     37 HO3          0.4610    -4.1680    -1.3690 ho         1 U2S       0.420000
     38 H2          -1.4820    -1.9220    -1.2440 h1         1 U2S       0.085700
     39 HO2         -2.8380    -3.1710    -0.0270 ho         1 U2S       0.419000
     40 H1          -1.3240    -1.3720     1.7270 h2         1 U2S       0.072700
     41 HAK          3.1710     2.6460    -0.7030 h1         1 U2S       0.052450
@<TRIPOS>BOND
     1     1     2 1   
     2     1     5 1   
     3     1    20 2   
     4     2     3 2   
     5     2    23 1   
     6     3     4 1   
     7     3    24 1   
     8     4    19 1   
     9     4    21 1   
    10     5    21 1   
    11     5    25 1   
    12     6     7 1   
    13     6     9 1   
    14     7     8 1   
    15     7    26 1   
    16     7    41 1   
    17     8    11 1   
    18     8    27 1   
    19     8    28 1   
    20     9    10 1   
    21     9    29 1   
    22     9    30 1   
    23    10    11 1   
    24    10    31 1   
    25    10    32 1   
    26    11    12 1   
    27    12    13 1   
    28    12    33 1   
    29    12    34 1   
    30    13    14 1   
    31    13    15 1   
    32    13    35 1   
    33    14    19 1   
    34    15    16 1   
    35    15    17 1   
    36    15    36 1   
    37    16    37 1   
    38    17    18 1   
    39    17    19 1   
    40    17    38 1   
    41    18    39 1   
    42    19    40 1   
    43    21    22 2   
@<TRIPOS>SUBSTRUCTURE
     1 U2S         1 TEMP              0 ****  ****    0 ROOT
