@<TRIPOS>MOLECULE
U2T
   35    36     1     0     0
SMALL
abcg2


@<TRIPOS>ATOM
      1 C01         -0.8750    -6.6570     4.5440 c3         1 U2T      -0.083100
      2 C02         -0.5720    -5.5750     5.5990 c3         1 U2T      -0.009700
      3 C03         -1.0630    -6.0570     6.9790 c3         1 U2T      -0.083100
      4 C04         -1.3460    -4.3050     5.2280 c3         1 U2T      -0.083100
      5 C05          0.9380    -5.3420     5.6520 ca         1 U2T      -0.035300
      6 C06          1.7930    -6.3950     6.0080 ca         1 U2T      -0.123000
      7 C07          3.1650    -6.2310     6.0640 ca         1 U2T      -0.061500
      8 C08          3.7380    -4.9900     5.7600 ca         1 U2T      -0.163500
      9 C09          2.9020    -3.9340     5.4030 ca         1 U2T      -0.061500
     10 C10          1.5250    -4.1120     5.3520 ca         1 U2T      -0.123000
     11 C11          5.1850    -4.7950     5.8110 cc         1 U2T       0.626500
     12 C14          7.0560    -3.8660     5.6450 cd         1 U2T       0.433500
     13 C16          8.2080    -2.9320     5.4150 c          1 U2T       0.512600
     14 N12          6.0290    -5.7280     6.1860 nd         1 U2T      -0.360300
     15 N15          5.8030    -3.6080     5.4680 nc         1 U2T      -0.658000
     16 N18          9.4190    -3.5050     5.5170 ns         1 U2T      -0.386300
     17 N19         10.6120    -2.7920     5.3360 n8         1 U2T      -0.717200
     18 O13          7.2830    -5.1130     6.0760 os         1 U2T      -0.116700
     19 O17          8.0060    -1.7560     5.1570 o          1 U2T      -0.549100
     20 H1          -0.3810    -7.6000     4.7830 hc         1 U2T       0.037589
     21 H2          -1.9510    -6.8400     4.4990 hc         1 U2T       0.037589
     22 H3          -0.5400    -6.3370     3.5550 hc         1 U2T       0.037589
     23 H4          -0.8510    -5.3090     7.7460 hc         1 U2T       0.037589
     24 H5          -2.1420    -6.2230     6.9490 hc         1 U2T       0.037589
     25 H6          -0.5850    -6.9920     7.2710 hc         1 U2T       0.037589
     26 H7          -1.1820    -3.5060     5.9530 hc         1 U2T       0.037589
     27 H8          -1.0650    -3.9360     4.2400 hc         1 U2T       0.037589
     28 H9          -2.4140    -4.5280     5.2110 hc         1 U2T       0.037589
     29 H10          1.3810    -7.3670     6.2470 ha         1 U2T       0.118500
     30 H11          3.7960    -7.0650     6.3400 ha         1 U2T       0.133500
     31 H12          3.3300    -2.9700     5.1650 ha         1 U2T       0.133500
     32 H13          0.9110    -3.2690     5.0710 ha         1 U2T       0.118500
     33 H14          9.5190    -4.4870     5.7240 hn         1 U2T       0.371500
     34 H15         10.6020    -2.3730     4.4100 hn         1 U2T       0.413000
     35 H16         10.6380    -2.0290     6.0080 hn         1 U2T       0.413000
@<TRIPOS>BOND
     1     1     2 1   
     2     1    20 1   
     3     1    21 1   
     4     1    22 1   
     5     2     3 1   
     6     2     4 1   
     7     2     5 1   
     8     3    23 1   
     9     3    24 1   
    10     3    25 1   
    11     4    26 1   
    12     4    27 1   
    13     4    28 1   
    14     5     6 ar  
    15     5    10 ar  
    16     6     7 ar  
    17     6    29 1   
    18     7     8 ar  
    19     7    30 1   
    20     8     9 ar  
    21     8    11 1   
    22     9    10 ar  
    23     9    31 1   
    24    10    32 1   
    25    11    14 2   
    26    11    15 1   
    27    12    13 1   
    28    12    15 2   
    29    12    18 1   
    30    13    16 1   
    31    13    19 2   
    32    14    18 1   
    33    16    17 1   
    34    16    33 1   
    35    17    34 1   
    36    17    35 1   
@<TRIPOS>SUBSTRUCTURE
     1 U2T         1 TEMP              0 ****  ****    0 ROOT
