@<TRIPOS>MOLECULE
U2T
   35    36     1     0     0
SMALL
No Charge or Current Charge


@<TRIPOS>ATOM
      1 C01         -0.9560    -6.6930     4.5820 c3         1 U2T      -0.083100
      2 C02         -0.6200    -5.5850     5.6170 c3         1 U2T      -0.009700
      3 C03         -1.0900    -6.0360     7.0260 c3         1 U2T      -0.083100
      4 C04         -1.4240    -4.3110     5.2300 c3         1 U2T      -0.083100
      5 C05          0.9160    -5.3520     5.6380 ca         1 U2T      -0.035300
      6 C06          1.7790    -6.4190     5.9730 ca         1 U2T      -0.123000
      7 C07          3.1740    -6.2520     6.0040 ca         1 U2T      -0.061500
      8 C08          3.7600    -5.0040     5.7000 ca         1 U2T      -0.163500
      9 C09          2.9030    -3.9320     5.3650 ca         1 U2T      -0.061500
     10 C10          1.5080    -4.1030     5.3340 ca         1 U2T      -0.123000
     11 C11          5.2250    -4.8310     5.7340 cc         1 U2T       0.626500
     12 C14          7.0810    -3.8780     5.5790 cd         1 U2T       0.433500
     13 C16          8.2270    -2.9060     5.3800 c          1 U2T       0.512600
     14 N12          6.0640    -5.8060     6.0430 nd         1 U2T      -0.360300
     15 N15          5.7870    -3.6240     5.4400 nc         1 U2T      -0.658000
     16 N18          9.4990    -3.4580     5.5990 ns         1 U2T      -0.386300
     17 N19         10.7550    -2.7180     5.4680 n8         1 U2T      -0.717200
     18 O13          7.3220    -5.1750     5.9410 os         1 U2T      -0.116700
     19 O17          8.1000    -1.7260     5.0560 o          1 U2T      -0.549100
     20 H1          -0.4930    -7.6500     4.8490 hc         1 U2T       0.037589
     21 H2          -2.0380    -6.8570     4.5200 hc         1 U2T       0.037589
     22 H3          -0.5980    -6.4120     3.5840 hc         1 U2T       0.037589
     23 H4          -0.8280    -5.2830     7.7800 hc         1 U2T       0.037589
     24 H5          -2.1770    -6.1760     7.0510 hc         1 U2T       0.037589
     25 H6          -0.6280    -6.9850     7.3230 hc         1 U2T       0.037589
     26 H7          -1.2460    -3.4990     5.9450 hc         1 U2T       0.037589
     27 H8          -1.1520    -3.9610     4.2270 hc         1 U2T       0.037589
     28 H9          -2.5020    -4.5160     5.2260 hc         1 U2T       0.037589
     29 H10          1.3730    -7.3980     6.2140 ha         1 U2T       0.118500
     30 H11          3.7940    -7.1060     6.2680 ha         1 U2T       0.133500
     31 H12          3.3100    -2.9520     5.1240 ha         1 U2T       0.133500
     32 H13          0.9050    -3.2400     5.0690 ha         1 U2T       0.118500
     33 H14          9.5280    -4.4470     5.8660 hn         1 U2T       0.371500
     34 H15         10.8510    -2.3280     4.5180 hn         1 U2T       0.413000
     35 H16         10.7650    -1.9020     6.1000 hn         1 U2T       0.413000
@<TRIPOS>BOND
     1     1     2 1   
     2     1    20 1   
     3     1    21 1   
     4     1    22 1   
     5     2     3 1   
     6     2     4 1   
     7     2     5 1   
     8     3    23 1   
     9     3    24 1   
    10     3    25 1   
    11     4    26 1   
    12     4    27 1   
    13     4    28 1   
    14     5     6 ar  
    15     5    10 ar  
    16     6     7 ar  
    17     6    29 1   
    18     7     8 ar  
    19     7    30 1   
    20     8     9 ar  
    21     8    11 1   
    22     9    10 ar  
    23     9    31 1   
    24    10    32 1   
    25    11    14 2   
    26    11    15 1   
    27    12    13 1   
    28    12    15 2   
    29    12    18 1   
    30    13    16 1   
    31    13    19 2   
    32    14    18 1   
    33    16    17 1   
    34    16    33 1   
    35    17    34 1   
    36    17    35 1   
@<TRIPOS>SUBSTRUCTURE
     1 U2T         1 TEMP              0 ****  ****    0 ROOT
