@<TRIPOS>MOLECULE
U2U
   52    55     1     0     0
SMALL
abcg2


@<TRIPOS>ATOM
      1 C1         132.6820   148.4250   146.8650 c3         1 U2U       0.157900
      2 C10        138.4600   151.7830   143.6460 ca         1 U2U      -0.095000
      3 C11        139.5170   151.4450   144.4930 ca         1 U2U      -0.070300
      4 C12        139.2130   151.0460   145.7930 ca         1 U2U      -0.096000
      5 C13        137.9000   150.9870   146.2350 ca         1 U2U       0.098100
      6 C14        137.1730   149.3740   147.8400 ca         1 U2U       0.160100
      7 C15        136.7500   148.4720   146.8460 ca         1 U2U      -0.166000
      8 C16        136.1910   147.2750   147.2190 ca         1 U2U      -0.057000
      9 C17        136.0380   146.9300   148.5760 ca         1 U2U      -0.156000
     10 C18        136.5230   147.8250   149.5680 ca         1 U2U       0.052000
     11 C19        137.0910   149.0480   149.1720 ca         1 U2U      -0.148000
     12 C2         133.7450   150.0600   148.2520 ca         1 U2U       0.233100
     13 C20        136.3860   147.4530   150.9310 ca         1 U2U      -0.210000
     14 C21        135.7760   146.2700   151.2280 ca         1 U2U       0.378900
     15 C22        135.3970   145.7220   149.0220 ca         1 U2U       0.616900
     16 C23        140.9440   151.5280   144.0270 c3         1 U2U      -0.046800
     17 C3         133.4670   149.3460   149.4160 ca         1 U2U      -0.210000
     18 C4         133.8990   149.8250   150.6470 ca         1 U2U      -0.013000
     19 C5         134.6240   151.0060   150.7420 ca         1 U2U      -0.169000
     20 C6         134.9140   151.7200   149.5880 ca         1 U2U       0.026000
     21 C7         134.4760   151.2590   148.3530 ca         1 U2U      -0.315500
     22 C8         136.8470   151.3500   145.3940 ca         1 U2U       0.281000
     23 C9         137.1470   151.7480   144.0940 ca         1 U2U      -0.122000
     24 N1         135.4970   151.2520   145.8150 nu         1 U2U      -0.944100
     25 N2         135.2740   145.4120   150.3020 nb         1 U2U      -0.767000
     26 N3         134.9140   144.8170   148.1150 nv         1 U2U      -1.059900
     27 O1         133.3600   149.6750   147.0180 os         1 U2U      -0.360100
     28 O2         135.7680   153.2510   147.2830 o          1 U2U      -0.546000
     29 O3         133.5240   152.6540   146.3780 o          1 U2U      -0.546000
     30 S1         134.7990   152.2450   146.9230 sy         1 U2U       1.224600
     31 H1         132.5130   148.3150   145.7980 h1         1 U2U       0.046700
     32 H2         133.3000   147.6030   147.2280 h1         1 U2U       0.046700
     33 H3         131.7270   148.4350   147.3940 h1         1 U2U       0.046700
     34 H4         138.6660   152.0880   142.6270 ha         1 U2U       0.119000
     35 H5         139.9990   150.7590   146.4810 ha         1 U2U       0.132000
     36 H6         136.8510   148.7230   145.8010 ha         1 U2U       0.130000
     37 H7         135.8640   146.6000   146.4390 ha         1 U2U       0.107000
     38 H8         137.4330   149.7530   149.9180 ha         1 U2U       0.136000
     39 H9         136.7430   148.1090   151.7130 ha         1 U2U       0.125000
     40 H10        135.6510   145.9610   152.2600 h4         1 U2U       0.016100
     41 H11        141.3400   152.5360   144.1790 hc         1 U2U       0.047033
     42 H12        141.5820   150.8380   144.5810 hc         1 U2U       0.047033
     43 H13        141.0250   151.3010   142.9640 hc         1 U2U       0.047033
     44 H14        132.9240   148.4150   149.3650 ha         1 U2U       0.119000
     45 H15        133.6770   149.2520   151.5370 ha         1 U2U       0.116000
     46 H16        134.9700   151.3650   151.7020 ha         1 U2U       0.122000
     47 H17        135.4870   152.6350   149.6330 ha         1 U2U       0.144000
     48 H18        136.3340   152.0260   143.4350 ha         1 U2U       0.122000
     49 H19        134.8340   150.8800   145.1500 hn         1 U2U       0.507000
     50 H20        134.3050   144.1080   148.4950 hn         1 U2U       0.472500
     51 H21        134.6620   145.1370   147.1950 hn         1 U2U       0.472500
     52 O4         137.6740   150.6200   147.5490 os         1 U2U      -0.251200
@<TRIPOS>BOND
     1     1    27 1   
     2     1    31 1   
     3     1    32 1   
     4     1    33 1   
     5     2     3 ar  
     6     2    23 ar  
     7     2    34 1   
     8     3     4 ar  
     9     3    16 1   
    10     4     5 ar  
    11     4    35 1   
    12     5    22 ar  
    13     5    52 1   
    14     6     7 ar  
    15     6    11 ar  
    16     6    52 1   
    17     7     8 ar  
    18     7    36 1   
    19     8     9 ar  
    20     8    37 1   
    21     9    10 ar  
    22     9    15 ar  
    23    10    11 ar  
    24    10    13 ar  
    25    11    38 1   
    26    12    17 ar  
    27    12    21 ar  
    28    12    27 1   
    29    13    14 ar  
    30    13    39 1   
    31    14    25 ar  
    32    14    40 1   
    33    15    25 ar  
    34    15    26 1   
    35    16    41 1   
    36    16    42 1   
    37    16    43 1   
    38    17    18 ar  
    39    17    44 1   
    40    18    19 ar  
    41    18    45 1   
    42    19    20 ar  
    43    19    46 1   
    44    20    21 ar  
    45    20    47 1   
    46    21    30 1   
    47    22    23 ar  
    48    22    24 1   
    49    23    48 1   
    50    24    30 1   
    51    24    49 1   
    52    26    50 1   
    53    26    51 1   
    54    28    30 2   
    55    29    30 2   
@<TRIPOS>SUBSTRUCTURE
     1 U2U         1 TEMP              0 ****  ****    0 ROOT
