@<TRIPOS>MOLECULE
U2U
   52    55     1     0     0
SMALL
No Charge or Current Charge


@<TRIPOS>ATOM
      1 C1         132.4500   148.7760   146.4390 c3         1 U2U       0.157900
      2 C10        138.4900   151.6860   143.7180 ca         1 U2U      -0.095000
      3 C11        139.3980   151.1840   144.6650 ca         1 U2U      -0.070300
      4 C12        138.9460   150.8940   145.9640 ca         1 U2U      -0.096000
      5 C13        137.6020   151.1060   146.3190 ca         1 U2U       0.098100
      6 C14        136.9090   149.4610   147.9320 ca         1 U2U       0.160100
      7 C15        136.4100   148.5490   146.9800 ca         1 U2U      -0.166000
      8 C16        136.0660   147.2410   147.3660 ca         1 U2U      -0.057000
      9 C17        136.2170   146.8420   148.7130 ca         1 U2U      -0.156000
     10 C18        136.7210   147.7580   149.6550 ca         1 U2U       0.052000
     11 C19        137.0690   149.0620   149.2660 ca         1 U2U      -0.148000
     12 C2         133.6110   150.2840   148.0180 ca         1 U2U       0.233100
     13 C20        136.8560   147.3370   150.9860 ca         1 U2U      -0.210000
     14 C21        136.4890   146.0260   151.3300 ca         1 U2U       0.378900
     15 C22        135.8850   145.5530   149.1790 ca         1 U2U       0.616900
     16 C23        140.8540   150.9530   144.2890 c3         1 U2U      -0.046800
     17 C3         133.4160   149.3890   149.0960 ca         1 U2U      -0.210000
     18 C4         133.9270   149.6850   150.3690 ca         1 U2U      -0.013000
     19 C5         134.6400   150.8740   150.5770 ca         1 U2U      -0.169000
     20 C6         134.8480   151.7660   149.5130 ca         1 U2U       0.026000
     21 C7         134.3350   151.4730   148.2320 ca         1 U2U      -0.315500
     22 C8         136.6800   151.6270   145.3670 ca         1 U2U       0.281000
     23 C9         137.1450   151.8980   144.0670 ca         1 U2U      -0.122000
     24 N1         135.3200   151.8530   145.6160 nu         1 U2U      -0.944100
     25 N2         136.0040   145.1370   150.4330 nb         1 U2U      -0.767000
     26 N3         135.3810   144.5620   148.4340 nv         1 U2U      -1.059900
     27 O1         133.1060   150.0140   146.7610 os         1 U2U      -0.360100
     28 O2         135.5780   153.6590   147.3010 o          1 U2U      -0.546000
     29 O3         133.3050   153.0300   146.3210 o          1 U2U      -0.546000
     30 S1         134.5940   152.6490   146.9020 sy         1 U2U       1.224600
     31 H1         132.1580   148.7650   145.3820 h1         1 U2U       0.046700
     32 H2         133.1190   147.9230   146.6150 h1         1 U2U       0.046700
     33 H3         131.5430   148.6450   147.0430 h1         1 U2U       0.046700
     34 H4         138.8250   151.9120   142.7070 ha         1 U2U       0.119000
     35 H5         139.6360   150.4950   146.7040 ha         1 U2U       0.132000
     36 H6         136.2670   148.8510   145.9470 ha         1 U2U       0.130000
     37 H7         135.6810   146.5520   146.6180 ha         1 U2U       0.107000
     38 H8         137.4480   149.7700   149.9970 ha         1 U2U       0.136000
     39 H9         137.2370   148.0080   151.7500 ha         1 U2U       0.125000
     40 H10        136.5840   145.6760   152.3570 h4         1 U2U       0.016100
     41 H11        141.4580   151.8420   144.5050 hc         1 U2U       0.047033
     42 H12        141.2830   150.1130   144.8470 hc         1 U2U       0.047033
     43 H13        140.9610   150.7260   143.2210 hc         1 U2U       0.047033
     44 H14        132.8690   148.4610   148.9680 ha         1 U2U       0.119000
     45 H15        133.7730   148.9920   151.1940 ha         1 U2U       0.116000
     46 H16        135.0370   151.1040   151.5630 ha         1 U2U       0.122000
     47 H17        135.4070   152.6830   149.6930 ha         1 U2U       0.144000
     48 H18        136.4600   152.2830   143.3160 ha         1 U2U       0.122000
     49 H19        134.7680   152.1590   144.8290 hn         1 U2U       0.507000
     50 H20        135.0010   143.7950   148.9740 hn         1 U2U       0.472500
     51 H21        134.8730   144.8180   147.5960 hn         1 U2U       0.472500
     52 O4         137.2160   150.7600   147.5920 os         1 U2U      -0.251200
@<TRIPOS>BOND
     1     1    27 1   
     2     1    31 1   
     3     1    32 1   
     4     1    33 1   
     5     2     3 ar  
     6     2    23 ar  
     7     2    34 1   
     8     3     4 ar  
     9     3    16 1   
    10     4     5 ar  
    11     4    35 1   
    12     5    22 ar  
    13     5    52 1   
    14     6     7 ar  
    15     6    11 ar  
    16     6    52 1   
    17     7     8 ar  
    18     7    36 1   
    19     8     9 ar  
    20     8    37 1   
    21     9    10 ar  
    22     9    15 ar  
    23    10    11 ar  
    24    10    13 ar  
    25    11    38 1   
    26    12    17 ar  
    27    12    21 ar  
    28    12    27 1   
    29    13    14 ar  
    30    13    39 1   
    31    14    25 ar  
    32    14    40 1   
    33    15    25 ar  
    34    15    26 1   
    35    16    41 1   
    36    16    42 1   
    37    16    43 1   
    38    17    18 ar  
    39    17    44 1   
    40    18    19 ar  
    41    18    45 1   
    42    19    20 ar  
    43    19    46 1   
    44    20    21 ar  
    45    20    47 1   
    46    21    30 1   
    47    22    23 ar  
    48    22    24 1   
    49    23    48 1   
    50    24    30 1   
    51    24    49 1   
    52    26    50 1   
    53    26    51 1   
    54    28    30 2   
    55    29    30 2   
@<TRIPOS>SUBSTRUCTURE
     1 U2U         1 TEMP              0 ****  ****    0 ROOT
