@<TRIPOS>MOLECULE
U2V
   65    67     1     0     0
SMALL
No Charge or Current Charge


@<TRIPOS>ATOM
      1 C13         -8.0280   -36.6340    -6.7030 ca         1 U2V       0.016500
      2 C15         -8.0170   -34.2030    -6.9720 ca         1 U2V       0.058000
      3 C17         -9.7800   -35.5520    -8.0010 ca         1 U2V       0.016500
      4 C22         -5.1580   -30.3320    -5.4800 c3         1 U2V       0.109000
      5 C24         -2.6460   -29.6860    -5.6150 c3         1 U2V      -0.064400
      6 C26         -1.5540   -27.4740    -4.9670 c          1 U2V       0.600100
      7 C01        -13.4460   -38.8230    -1.8340 ca         1 U2V      -0.147000
      8 C02        -13.3310   -37.8110    -2.8020 ca         1 U2V       0.314000
      9 C04        -13.1930   -37.8210    -5.3240 c6         1 U2V       0.201800
     10 C05        -12.1420   -37.5050    -6.4330 c6         1 U2V       0.179300
     11 C07        -10.3870   -38.6020    -5.1410 c6         1 U2V       0.179300
     12 C08        -11.4000   -38.9420    -4.0030 c6         1 U2V       0.201800
     13 C12         -9.2040   -36.7220    -7.4720 ca         1 U2V      -0.349500
     14 C14         -7.4410   -35.3820    -6.4540 ca         1 U2V      -0.177000
     15 C16         -9.1870   -34.3040    -7.7470 ca         1 U2V      -0.177000
     16 C19         -6.3930   -32.4550    -6.0340 c          1 U2V       0.662100
     17 C23         -3.8390   -30.4170    -6.2780 c3         1 U2V      -0.106400
     18 C25         -2.8190   -28.1490    -5.5140 c3         1 U2V      -0.161400
     19 C30        -13.9900   -36.5840    -2.5900 ca         1 U2V      -0.116000
     20 C31        -14.7680   -36.3580    -1.4320 ca         1 U2V      -0.155300
     21 C32        -14.8630   -37.3870    -0.4710 ca         1 U2V      -0.094000
     22 C33        -14.2060   -38.6100    -0.6760 ca         1 U2V       0.146000
     23 C35        -15.4670   -35.0100    -1.2150 c3         1 U2V       0.356300
     24 F36        -15.8780   -34.4540    -2.3770 f          1 U2V      -0.112000
     25 F37        -14.6420   -34.1200    -0.6200 f          1 U2V      -0.112000
     26 F38        -16.5640   -35.1180    -0.4310 f          1 U2V      -0.112000
     27 N03        -12.5640   -38.0000    -3.9770 nh         1 U2V      -0.797400
     28 N06        -11.0370   -38.5090    -6.4810 n3         1 U2V      -0.701500
     29 N18         -7.4800   -32.9050    -6.7630 ns         1 U2V      -0.170000
     30 N21         -6.2360   -31.0900    -6.1210 ns         1 U2V      -0.518900
     31 N28         -1.6590   -26.9890    -3.6680 ns         1 U2V      -0.390400
     32 O10         -8.9540   -39.3840    -7.6400 o          1 U2V      -0.532000
     33 O11        -10.7930   -38.2490    -8.9950 o          1 U2V      -0.532000
     34 O20         -5.6420   -33.1580    -5.3740 o          1 U2V      -0.606100
     35 O27         -0.5410   -27.3370    -5.6410 o          1 U2V      -0.566100
     36 O29         -0.4870   -26.5520    -2.9370 oh         1 U2V      -0.422100
     37 S09         -9.9600   -38.3260    -7.7890 sy         1 U2V       1.153600
     38 Cl34       -14.3390   -39.8850     0.5280 cl         1 U2V      -0.191000
     39 H1          -7.5640   -37.5310    -6.2940 ha         1 U2V       0.134500
     40 H2         -10.6850   -35.6010    -8.6050 ha         1 U2V       0.134500
     41 H3          -5.0010   -30.7190    -4.4630 h1         1 U2V       0.061200
     42 H4          -5.4760   -29.2850    -5.3970 h1         1 U2V       0.061200
     43 H5          -2.4760   -30.1030    -4.6140 hc         1 U2V       0.062700
     44 H6          -1.7430   -29.9030    -6.2000 hc         1 U2V       0.062700
     45 H7         -12.9570   -39.7810    -1.9750 ha         1 U2V       0.135000
     46 H8         -13.9310   -37.0070    -5.3080 h1         1 U2V       0.054450
     47 H9         -13.7310   -38.7380    -5.6040 h1         1 U2V       0.054450
     48 H10        -11.7370   -36.5000    -6.2420 h1         1 U2V       0.064700
     49 H11        -12.6710   -37.4600    -7.3950 h1         1 U2V       0.064700
     50 H12         -9.6060   -39.3760    -5.1370 h1         1 U2V       0.064700
     51 H13         -9.8970   -37.6510    -4.8870 h1         1 U2V       0.064700
     52 H14        -11.7570   -39.9720    -4.1490 h1         1 U2V       0.054450
     53 H15        -10.8620   -38.9110    -3.0440 h1         1 U2V       0.054450
     54 H16         -6.5350   -35.3540    -5.8580 ha         1 U2V       0.131500
     55 H17         -9.6440   -33.4080    -8.1590 ha         1 U2V       0.131500
     56 H18         -3.9990   -30.0110    -7.2850 hc         1 U2V       0.049700
     57 H19         -3.5680   -31.4720    -6.4050 hc         1 U2V       0.049700
     58 H20         -3.0160   -27.7550    -6.5180 hc         1 U2V       0.057200
     59 H21         -3.6680   -27.9290    -4.8560 hc         1 U2V       0.057200
     60 H22        -13.8820   -35.7970    -3.3300 ha         1 U2V       0.132000
     61 H23        -15.4410   -37.2450     0.4400 ha         1 U2V       0.149000
     62 H24         -7.9910   -32.1750    -7.2400 hn         1 U2V       0.148000
     63 H25         -6.9060   -30.5850    -6.6870 hn         1 U2V       0.307500
     64 H26         -2.4700   -27.2450    -3.1060 hn         1 U2V       0.332500
     65 H27         -0.7500   -25.6700    -2.5810 ho         1 U2V       0.446000
@<TRIPOS>BOND
     1     1    13 ar  
     2     1    14 ar  
     3     1    39 1   
     4     2    14 ar  
     5     2    15 ar  
     6     2    29 1   
     7     3    13 ar  
     8     3    15 ar  
     9     3    40 1   
    10     4    17 1   
    11     4    30 1   
    12     4    41 1   
    13     4    42 1   
    14     5    17 1   
    15     5    18 1   
    16     5    43 1   
    17     5    44 1   
    18     6    18 1   
    19     6    31 1   
    20     6    35 2   
    21     7     8 ar  
    22     7    22 ar  
    23     7    45 1   
    24     8    19 ar  
    25     8    27 1   
    26     9    10 1   
    27     9    27 1   
    28     9    46 1   
    29     9    47 1   
    30    10    28 1   
    31    10    48 1   
    32    10    49 1   
    33    11    12 1   
    34    11    28 1   
    35    11    50 1   
    36    11    51 1   
    37    12    27 1   
    38    12    52 1   
    39    12    53 1   
    40    13    37 1   
    41    14    54 1   
    42    15    55 1   
    43    16    29 1   
    44    16    30 1   
    45    16    34 2   
    46    17    56 1   
    47    17    57 1   
    48    18    58 1   
    49    18    59 1   
    50    19    20 ar  
    51    19    60 1   
    52    20    21 ar  
    53    20    23 1   
    54    21    22 ar  
    55    21    61 1   
    56    22    38 1   
    57    23    24 1   
    58    23    25 1   
    59    23    26 1   
    60    28    37 1   
    61    29    62 1   
    62    30    63 1   
    63    31    36 1   
    64    31    64 1   
    65    32    37 2   
    66    33    37 2   
    67    36    65 1   
@<TRIPOS>SUBSTRUCTURE
     1 U2V         1 TEMP              0 ****  ****    0 ROOT
