@<TRIPOS>MOLECULE
U2V
   65    67     1     0     0
SMALL
abcg2


@<TRIPOS>ATOM
      1 C13         -7.8560   -36.5340    -6.2850 ca         1 U2V       0.016500
      2 C15         -7.7590   -34.1330    -6.4750 ca         1 U2V       0.058000
      3 C17         -9.5420   -35.3660    -7.5500 ca         1 U2V       0.016500
      4 C22         -4.4500   -30.6770    -5.3570 c3         1 U2V       0.109000
      5 C24         -2.6800   -29.1760    -6.4300 c3         1 U2V      -0.064400
      6 C26         -1.4110   -27.2660    -5.3800 c          1 U2V       0.600100
      7 C01        -13.6140   -38.8770    -1.8740 ca         1 U2V      -0.147000
      8 C02        -13.6520   -37.9280    -2.9030 ca         1 U2V       0.314000
      9 C04        -13.2130   -37.7260    -5.2930 c6         1 U2V       0.201800
     10 C05        -12.0980   -37.2470    -6.1990 c6         1 U2V       0.179300
     11 C07        -10.4980   -38.3950    -4.7980 c6         1 U2V       0.179300
     12 C08        -11.6230   -38.8590    -3.8900 c6         1 U2V       0.201800
     13 C12         -9.0100   -36.5550    -7.0590 ca         1 U2V      -0.349500
     14 C14         -7.2290   -35.3350    -5.9940 ca         1 U2V      -0.177000
     15 C16         -8.9210   -34.1710    -7.2560 ca         1 U2V      -0.177000
     16 C19         -5.9230   -32.5870    -5.8550 c          1 U2V       0.662100
     17 C23         -4.0330   -29.8640    -6.5790 c3         1 U2V      -0.106400
     18 C25         -2.6660   -28.1090    -5.3380 c3         1 U2V      -0.161400
     19 C30        -14.6450   -36.9400    -2.8450 ca         1 U2V      -0.116000
     20 C31        -15.5560   -36.9120    -1.8030 ca         1 U2V      -0.155300
     21 C32        -15.5130   -37.8420    -0.7730 ca         1 U2V      -0.094000
     22 C33        -14.5250   -38.8080    -0.8360 ca         1 U2V       0.146000
     23 C35        -16.5970   -35.8330    -1.8100 c3         1 U2V       0.356300
     24 F36        -17.3720   -35.9070    -2.9010 f          1 U2V      -0.112000
     25 F37        -16.0450   -34.6110    -1.8180 f          1 U2V      -0.112000
     26 F38        -17.4060   -35.8900    -0.7500 f          1 U2V      -0.112000
     27 N03        -12.7290   -37.9270    -3.9360 nh         1 U2V      -0.797400
     28 N06        -11.0020   -38.2120    -6.1570 n3         1 U2V      -0.701500
     29 N18         -7.2330   -32.8870    -6.1870 ns         1 U2V      -0.170000
     30 N21         -5.7480   -31.2910    -5.5260 ns         1 U2V      -0.518900
     31 N28         -0.8520   -27.0800    -4.1690 ns         1 U2V      -0.390400
     32 O10         -8.9200   -39.1690    -7.1630 o          1 U2V      -0.532000
     33 O11        -10.5810   -37.9550    -8.6070 o          1 U2V      -0.532000
     34 O20         -5.0320   -33.4220    -5.8540 o          1 U2V      -0.606100
     35 O27         -0.9740   -26.7670    -6.4020 o          1 U2V      -0.566100
     36 O29          0.3490   -26.4440    -4.0610 oh         1 U2V      -0.422100
     37 S09         -9.8550   -38.0720    -7.3530 sy         1 U2V       1.153600
     38 CL34       -14.4400   -39.9990     0.4200 cl         1 U2V      -0.191000
     39 H1          -7.4330   -37.4500    -5.8980 ha         1 U2V       0.134500
     40 H2         -10.4270   -35.3610    -8.1710 ha         1 U2V       0.134500
     41 H3          -3.7190   -31.4590    -5.1560 h1         1 U2V       0.061200
     42 H4          -4.4900   -30.0460    -4.4680 h1         1 U2V       0.061200
     43 H5          -1.9040   -29.9200    -6.2290 hc         1 U2V       0.062700
     44 H6          -2.4240   -28.7120    -7.3840 hc         1 U2V       0.062700
     45 H7         -12.8930   -39.6810    -1.8770 ha         1 U2V       0.135000
     46 H8         -13.9970   -36.9740    -5.3160 h1         1 U2V       0.054450
     47 H9         -13.6380   -38.6570    -5.6930 h1         1 U2V       0.054450
     48 H10        -11.7660   -36.2530    -5.8740 h1         1 U2V       0.064700
     49 H11        -12.4890   -37.1680    -7.2110 h1         1 U2V       0.064700
     50 H12         -9.7170   -39.1520    -4.7880 h1         1 U2V       0.064700
     51 H13        -10.0780   -37.4600    -4.4040 h1         1 U2V       0.064700
     52 H14        -11.9310   -39.8760    -4.1710 h1         1 U2V       0.054450
     53 H15        -11.2140   -38.9020    -2.8810 h1         1 U2V       0.054450
     54 H16         -6.3410   -35.3460    -5.3840 ha         1 U2V       0.131500
     55 H17         -9.3360   -33.2500    -7.6460 ha         1 U2V       0.131500
     56 H18         -4.8000   -29.1110    -6.7890 hc         1 U2V       0.049700
     57 H19         -4.0020   -30.5290    -7.4460 hc         1 U2V       0.049700
     58 H20         -3.5130   -27.4300    -5.4810 hc         1 U2V       0.057200
     59 H21         -2.7960   -28.5570    -4.3510 hc         1 U2V       0.057200
     60 H22        -14.6850   -36.1750    -3.6080 ha         1 U2V       0.132000
     61 H23        -16.2120   -37.8280     0.0500 ha         1 U2V       0.149000
     62 H24         -7.8390   -32.1090    -6.4000 hn         1 U2V       0.148000
     63 H25         -6.5390   -30.6680    -5.5490 hn         1 U2V       0.307500
     64 H26         -1.1070   -27.6400    -3.3680 hn         1 U2V       0.332500
     65 H27          0.1470   -25.5350    -3.8040 ho         1 U2V       0.446000
@<TRIPOS>BOND
     1     1    13 ar  
     2     1    14 ar  
     3     1    39 1   
     4     2    14 ar  
     5     2    15 ar  
     6     2    29 1   
     7     3    13 ar  
     8     3    15 ar  
     9     3    40 1   
    10     4    17 1   
    11     4    30 1   
    12     4    41 1   
    13     4    42 1   
    14     5    17 1   
    15     5    18 1   
    16     5    43 1   
    17     5    44 1   
    18     6    18 1   
    19     6    31 1   
    20     6    35 2   
    21     7     8 ar  
    22     7    22 ar  
    23     7    45 1   
    24     8    19 ar  
    25     8    27 1   
    26     9    10 1   
    27     9    27 1   
    28     9    46 1   
    29     9    47 1   
    30    10    28 1   
    31    10    48 1   
    32    10    49 1   
    33    11    12 1   
    34    11    28 1   
    35    11    50 1   
    36    11    51 1   
    37    12    27 1   
    38    12    52 1   
    39    12    53 1   
    40    13    37 1   
    41    14    54 1   
    42    15    55 1   
    43    16    29 1   
    44    16    30 1   
    45    16    34 2   
    46    17    56 1   
    47    17    57 1   
    48    18    58 1   
    49    18    59 1   
    50    19    20 ar  
    51    19    60 1   
    52    20    21 ar  
    53    20    23 1   
    54    21    22 ar  
    55    21    61 1   
    56    22    38 1   
    57    23    24 1   
    58    23    25 1   
    59    23    26 1   
    60    28    37 1   
    61    29    62 1   
    62    30    63 1   
    63    31    36 1   
    64    31    64 1   
    65    32    37 2   
    66    33    37 2   
    67    36    65 1   
@<TRIPOS>SUBSTRUCTURE
     1 U2V         1 TEMP              0 ****  ****    0 ROOT
