@<TRIPOS>MOLECULE
U2W
   13    13     1     0     0
SMALL
No Charge or Current Charge


@<TRIPOS>ATOM
      1 C04          3.2620    -7.1210     6.2590 cc         1 U2W       0.262100
      2 C07          4.3360    -4.5250     5.7860 c          1 U2W       0.547200
      3 C09          2.8690    -4.7640     5.7500 cd         1 U2W      -0.016200
      4 C11          2.3430    -6.0260     5.9780 cc         1 U2W       0.061400
      5 N02          2.7240    -8.4540     6.5270 no         1 U2W       0.633200
      6 N05          4.5920    -6.9440     6.2890 nd         1 U2W      -0.342300
      7 N06          5.0590    -5.6700     6.0550 ns         1 U2W      -0.200900
      8 O01          3.3180    -9.4270     6.0320 o          1 U2W      -0.354000
      9 O03          1.8380    -8.5660     7.3910 o          1 U2W      -0.354000
     10 O08          4.8760    -3.4420     5.5980 o          1 U2W      -0.469000
     11 Cl2          1.8740    -3.3750     5.3950 cl         1 U2W      -0.077000
     12 Cl1          0.6160    -6.2900     5.8730 cl         1 U2W      -0.069000
     13 H1           6.0660    -5.5280     6.0780 hn         1 U2W       0.378500
@<TRIPOS>BOND
     1     1     4 1   
     2     1     5 1   
     3     1     6 2   
     4     2     3 1   
     5     2     7 1   
     6     2    10 2   
     7     3     4 2   
     8     3    11 1   
     9     4    12 1   
    10     5     8 1   
    11     5     9 1   
    12     6     7 1   
    13     7    13 1   
@<TRIPOS>SUBSTRUCTURE
     1 U2W         1 TEMP              0 ****  ****    0 ROOT
