@<TRIPOS>MOLECULE
U2W
   13    13     1     0     0
SMALL
bcc


@<TRIPOS>ATOM
      1 C04          3.2390    -7.0610     6.2420 cc         1 U2W       0.262100
      2 C07          4.3000    -4.5610     5.7930 c          1 U2W       0.689700
      3 C09          2.8560    -4.7720     5.7700 cd         1 U2W      -0.091800
      4 C11          2.3160    -5.9970     5.9920 cc         1 U2W      -0.014200
      5 N02          2.8120    -8.4230     6.5570 no         1 U2W       0.253200
      6 N05          4.5100    -6.9110     6.2450 nd         1 U2W      -0.342300
      7 N06          5.0030    -5.7250     6.0350 ns         1 U2W      -0.267900
      8 O01          3.4940    -9.3230     6.1470 o          1 U2W      -0.164000
      9 O03          1.8200    -8.5340     7.2310 o          1 U2W      -0.164000
     10 O08          4.8550    -3.5040     5.6120 o          1 U2W      -0.544500
     11 CL2          1.9140    -3.4070     5.4340 cl         1 U2W      -0.001400
     12 CL1          0.6400    -6.2420     5.8910 cl         1 U2W       0.006600
     13 H1           6.0160    -5.6720     6.0620 hn         1 U2W       0.378500
@<TRIPOS>BOND
     1     1     4 1   
     2     1     5 1   
     3     1     6 2   
     4     2     3 1   
     5     2     7 1   
     6     2    10 2   
     7     3     4 2   
     8     3    11 1   
     9     4    12 1   
    10     5     8 1   
    11     5     9 1   
    12     6     7 1   
    13     7    13 1   
@<TRIPOS>SUBSTRUCTURE
     1 U2W         1 TEMP              0 ****  ****    0 ROOT
