@<TRIPOS>MOLECULE
U2X
   42    43     1     0     0
SMALL
No Charge or Current Charge


@<TRIPOS>ATOM
      1 N            4.3260     0.4220     1.6210 n8         1 U2X      -0.875800
      2 C            6.1660    -0.4470    -0.0780 c          1 U2X       0.934600
      3 O            6.8550     0.5630    -0.1960 o          1 U2X      -0.835300
      4 CA           4.6340    -0.2930     0.3260 c3         1 U2X       0.027500
      5 CB           3.8190     0.3420    -0.8330 c3         1 U2X      -0.068100
      6 CG           2.3120     0.3750    -0.5780 ca         1 U2X      -0.080300
      7 CD1          1.6520     1.5980    -0.3520 ca         1 U2X      -0.101500
      8 CD2          1.5680    -0.8210    -0.5780 ca         1 U2X      -0.101500
      9 CE1          0.2650     1.6220    -0.1220 ca         1 U2X      -0.192500
     10 CE2          0.1800    -0.7980    -0.3480 ca         1 U2X      -0.192500
     11 CZ          -0.4770     0.4300    -0.1180 ca         1 U2X       0.113100
     12 OH          -1.8340     0.5170     0.1120 os         1 U2X      -0.336900
     13 C7          -2.6840    -0.6440     0.1300 c3         1 U2X       0.148400
     14 C1          -6.1730     1.1410    -0.4260 c6         1 U2X      -0.072900
     15 C2          -4.7080     0.7240    -0.7110 c6         1 U2X      -0.070400
     16 C3          -4.1500    -0.2060     0.4070 c6         1 U2X      -0.063700
     17 C4          -5.0740    -1.4430     0.5900 c6         1 U2X      -0.070400
     18 C5          -6.5380    -1.0240     0.8760 c6         1 U2X      -0.072900
     19 C6          -7.0830    -0.0970    -0.2370 c6         1 U2X      -0.074400
     20 H1           4.7240     1.3660     1.5800 hn         1 U2X       0.321800
     21 H2           3.3130     0.5740     1.6750 hn         1 U2X       0.321800
     22 HA           4.2570    -1.3170     0.4500 h1         1 U2X       0.044700
     23 HB2          4.1970     1.3540    -1.0260 hc         1 U2X       0.054700
     24 HB3          4.0160    -0.2280    -1.7500 hc         1 U2X       0.054700
     25 HD11         2.2120     2.5310    -0.3530 ha         1 U2X       0.133000
     26 HD21         2.0670    -1.7720    -0.7560 ha         1 U2X       0.133000
     27 HE11        -0.2390     2.5690     0.0530 ha         1 U2X       0.125000
     28 HE21        -0.3640    -1.7370    -0.3530 ha         1 U2X       0.125000
     29 H72         -2.6420    -1.1710    -0.8330 h1         1 U2X       0.030700
     30 H71         -2.3650    -1.3360     0.9200 h1         1 U2X       0.030700
     31 H11         -6.2090     1.7680     0.4760 hc         1 U2X       0.035950
     32 H12         -6.5510     1.7590    -1.2510 hc         1 U2X       0.035950
     33 H21         -4.6540     0.2120    -1.6820 hc         1 U2X       0.042950
     34 H22         -4.0870     1.6250    -0.8010 hc         1 U2X       0.042950
     35 H31         -4.1310     0.3530     1.3530 hc         1 U2X       0.059700
     36 H41         -5.0420    -2.0700    -0.3120 hc         1 U2X       0.042950
     37 H42         -4.7060    -2.0680     1.4160 hc         1 U2X       0.042950
     38 H51         -7.1720    -1.9170     0.9600 hc         1 U2X       0.035950
     39 H52         -6.5930    -0.5100     1.8460 hc         1 U2X       0.035950
     40 H61         -8.1030     0.2250     0.0120 hc         1 U2X       0.033700
     41 H62         -7.1520    -0.6530    -1.1820 hc         1 U2X       0.033700
     42 OXT          6.6360    -1.5770    -0.1880 o          1 U2X      -0.835300
@<TRIPOS>BOND
     1     1     4 1   
     2     1    20 1   
     3     1    21 1   
     4     2     3 1   
     5     2     4 1   
     6     2    42 1   
     7     4     5 1   
     8     4    22 1   
     9     5     6 1   
    10     5    23 1   
    11     5    24 1   
    12     6     7 ar  
    13     6     8 ar  
    14     7     9 ar  
    15     7    25 1   
    16     8    10 ar  
    17     8    26 1   
    18     9    11 ar  
    19     9    27 1   
    20    10    11 ar  
    21    10    28 1   
    22    11    12 1   
    23    12    13 1   
    24    13    16 1   
    25    13    29 1   
    26    13    30 1   
    27    14    15 1   
    28    14    19 1   
    29    14    31 1   
    30    14    32 1   
    31    15    16 1   
    32    15    33 1   
    33    15    34 1   
    34    16    17 1   
    35    16    35 1   
    36    17    18 1   
    37    17    36 1   
    38    17    37 1   
    39    18    19 1   
    40    18    38 1   
    41    18    39 1   
    42    19    40 1   
    43    19    41 1   
@<TRIPOS>SUBSTRUCTURE
     1 U2X         1 TEMP              0 ****  ****    0 ROOT
