@<TRIPOS>MOLECULE
U2X
   42    43     1     0     0
SMALL
bcc


@<TRIPOS>ATOM
      1 N            4.3330     0.7170     1.5280 n8         1 U2X      -0.875800
      2 C            6.0230    -0.2920     0.0360 c          1 U2X       0.934600
      3 O            6.7510     0.6760     0.3300 o          1 U2X      -0.835300
      4 CA           4.5310    -0.2010     0.4240 c3         1 U2X       0.027500
      5 CB           3.7340     0.1490    -0.8560 c3         1 U2X      -0.068100
      6 CG           2.2540     0.2240    -0.6230 ca         1 U2X      -0.080300
      7 CD1          1.6220     1.4340    -0.3320 ca         1 U2X      -0.101500
      8 CD2          1.4630    -0.9190    -0.6420 ca         1 U2X      -0.101500
      9 CE1          0.2630     1.5010    -0.0790 ca         1 U2X      -0.192500
     10 CE2          0.0960    -0.8760    -0.3910 ca         1 U2X      -0.192500
     11 CZ          -0.5150     0.3440    -0.1060 ca         1 U2X       0.113100
     12 OH          -1.8300     0.4980     0.1470 os         1 U2X      -0.336900
     13 C7          -2.6770    -0.6370     0.1190 c3         1 U2X       0.148400
     14 C1          -6.0810     1.1660    -0.3620 c6         1 U2X      -0.072900
     15 C2          -4.6380     0.7650    -0.6510 c6         1 U2X      -0.070400
     16 C3          -4.0980    -0.1930     0.4110 c6         1 U2X      -0.063700
     17 C4          -5.0050    -1.4180     0.5320 c6         1 U2X      -0.070400
     18 C5          -6.4500    -1.0240     0.8210 c6         1 U2X      -0.072900
     19 C6          -6.9840    -0.0560    -0.2290 c6         1 U2X      -0.074400
     20 H1           4.7500     1.6090     1.2900 hn         1 U2X       0.321800
     21 H2           3.3450     0.8840     1.6740 hn         1 U2X       0.321800
     22 HA           4.2020    -1.1950     0.7450 h1         1 U2X       0.044700
     23 HB2          4.0940     1.1090    -1.2410 hc         1 U2X       0.054700
     24 HB3          3.9510    -0.6030    -1.6170 hc         1 U2X       0.054700
     25 HD11         2.2030     2.3490    -0.3180 ha         1 U2X       0.133000
     26 HD21         1.9160    -1.8780    -0.8680 ha         1 U2X       0.133000
     27 HE11        -0.2060     2.4530     0.1410 ha         1 U2X       0.125000
     28 HE21        -0.4730    -1.7950    -0.4270 ha         1 U2X       0.125000
     29 H72         -2.6330    -1.1260    -0.8630 h1         1 U2X       0.030700
     30 H71         -2.3520    -1.3710     0.8670 h1         1 U2X       0.030700
     31 H11         -6.1150     1.7460     0.5670 hc         1 U2X       0.035950
     32 H12         -6.4500     1.8260    -1.1500 hc         1 U2X       0.035950
     33 H21         -4.5880     0.2730    -1.6300 hc         1 U2X       0.042950
     34 H22         -4.0080     1.6560    -0.7160 hc         1 U2X       0.042950
     35 H31         -4.0980     0.3240     1.3800 hc         1 U2X       0.059700
     36 H41         -4.9650    -1.9910    -0.4020 hc         1 U2X       0.042950
     37 H42         -4.6330    -2.0820     1.3170 hc         1 U2X       0.042950
     38 H51         -7.0780    -1.9170     0.8660 hc         1 U2X       0.035950
     39 H52         -6.5050    -0.5550     1.8100 hc         1 U2X       0.035950
     40 H61         -8.0030     0.2510     0.0220 hc         1 U2X       0.033700
     41 H62         -7.0420    -0.5680    -1.1960 hc         1 U2X       0.033700
     42 OXT          6.3640    -1.3170    -0.5890 o          1 U2X      -0.835300
@<TRIPOS>BOND
     1     1     4 1   
     2     1    20 1   
     3     1    21 1   
     4     2     3 1   
     5     2     4 1   
     6     2    42 1   
     7     4     5 1   
     8     4    22 1   
     9     5     6 1   
    10     5    23 1   
    11     5    24 1   
    12     6     7 ar  
    13     6     8 ar  
    14     7     9 ar  
    15     7    25 1   
    16     8    10 ar  
    17     8    26 1   
    18     9    11 ar  
    19     9    27 1   
    20    10    11 ar  
    21    10    28 1   
    22    11    12 1   
    23    12    13 1   
    24    13    16 1   
    25    13    29 1   
    26    13    30 1   
    27    14    15 1   
    28    14    19 1   
    29    14    31 1   
    30    14    32 1   
    31    15    16 1   
    32    15    33 1   
    33    15    34 1   
    34    16    17 1   
    35    16    35 1   
    36    17    18 1   
    37    17    36 1   
    38    17    37 1   
    39    18    19 1   
    40    18    38 1   
    41    18    39 1   
    42    19    40 1   
    43    19    41 1   
@<TRIPOS>SUBSTRUCTURE
     1 U2X         1 TEMP              0 ****  ****    0 ROOT
