@<TRIPOS>MOLECULE
U2Z
   31    32     1     0     0
SMALL
bcc


@<TRIPOS>ATOM
      1 C12         -3.7920    -0.3090     0.9460 ca         1 U2Z      -0.121000
      2 C11         -3.0280    -1.4260     1.2500 ca         1 U2Z      -0.123000
      3 C13         -3.1950     0.8040     0.3690 ca         1 U2Z      -0.128000
      4 C10         -1.6670    -1.4170     0.9790 ca         1 U2Z      -0.117000
      5 C3           2.2830    -0.6670    -0.7160 cc         1 U2Z      -0.299300
      6 C14         -1.8340     0.8300     0.0820 ca         1 U2Z      -0.061300
      7 C9          -1.0820    -0.3020     0.3990 ca         1 U2Z       0.032800
      8 C4           2.3610     0.0640     0.4840 cc         1 U2Z       0.313600
      9 C2           0.9410    -0.8970    -0.9100 cd         1 U2Z      -0.052600
     10 C1           0.2120    -1.5770    -2.0100 c3         1 U2Z      -0.031800
     11 C15         -1.2240     2.0250    -0.5980 c3         1 U2Z       0.192100
     12 C5           3.5820     0.5860     1.1610 c3         1 U2Z       0.113100
     13 N7           1.1620     0.2610     0.9970 nd         1 U2Z      -0.514800
     14 N8           0.3130    -0.3230     0.1420 na         1 U2Z       0.165300
     15 N16         -0.9810     1.7310    -2.0030 n8         1 U2Z      -0.884800
     16 O6           4.4500    -0.4970     1.4190 oh         1 U2Z      -0.590800
     17 H12         -4.8540    -0.3030     1.1570 ha         1 U2Z       0.134000
     18 H11         -3.4830    -2.2970     1.7010 ha         1 U2Z       0.137000
     19 H13         -3.7980     1.6720     0.1310 ha         1 U2Z       0.131000
     20 H10         -1.0550    -2.2770     1.2230 ha         1 U2Z       0.148000
     21 H3           3.0910    -0.9760    -1.3590 ha         1 U2Z       0.164000
     22 H151        -1.8840     2.8870    -0.4340 h1         1 U2Z       0.045700
     23 H152        -0.2700     2.2720    -0.1290 h1         1 U2Z       0.045700
     24 H51C         4.0630     1.3310     0.5140 h1         1 U2Z       0.030200
     25 H52C         3.2830     1.1060     2.0790 h1         1 U2Z       0.030200
     26 H11C        -0.4280    -2.3810    -1.6440 hc         1 U2Z       0.053700
     27 H12C        -0.4160    -0.8610    -2.5410 hc         1 U2Z       0.053700
     28 H13C         0.9200    -2.0080    -2.7150 hc         1 U2Z       0.053700
     29 H161        -1.8660     1.6410    -2.4860 hn         1 U2Z       0.339800
     30 H162        -0.5080     2.5170    -2.4310 hn         1 U2Z       0.339800
     31 H6           5.2740    -0.1400     1.7660 ho         1 U2Z       0.400000
@<TRIPOS>BOND
     1     1     2 ar  
     2     1     3 ar  
     3     1    17 1   
     4     2     4 ar  
     5     2    18 1   
     6     3     6 ar  
     7     3    19 1   
     8     4     7 ar  
     9     4    20 1   
    10     5     8 1   
    11     5     9 2   
    12     5    21 1   
    13     6     7 ar  
    14     6    11 1   
    15     7    14 1   
    16     8    12 1   
    17     8    13 2   
    18     9    10 1   
    19     9    14 1   
    20    10    26 1   
    21    10    27 1   
    22    10    28 1   
    23    11    15 1   
    24    11    22 1   
    25    11    23 1   
    26    12    16 1   
    27    12    24 1   
    28    12    25 1   
    29    13    14 1   
    30    15    29 1   
    31    15    30 1   
    32    16    31 1   
@<TRIPOS>SUBSTRUCTURE
     1 U2Z         1 TEMP              0 ****  ****    0 ROOT
