@<TRIPOS>MOLECULE
U2Z
   31    32     1     0     0
SMALL
No Charge or Current Charge


@<TRIPOS>ATOM
      1 C12         -3.8070    -0.4100     0.7690 ca         1 U2Z      -0.103000
      2 C11         -2.9880    -1.4620     1.2070 ca         1 U2Z      -0.105000
      3 C13         -3.2340     0.7230     0.1680 ca         1 U2Z      -0.110000
      4 C10         -1.5960    -1.3800     1.0420 ca         1 U2Z      -0.099000
      5 C3           2.2700    -0.6770    -0.6170 cc         1 U2Z      -0.216000
      6 C14         -1.8370     0.8180    -0.0070 ca         1 U2Z      -0.061300
      7 C9          -1.0120    -0.2490     0.4350 ca         1 U2Z       0.032800
      8 C4           2.4270     0.0560     0.5800 cc         1 U2Z       0.248300
      9 C2           0.9350    -0.8640    -0.8120 cd         1 U2Z      -0.103300
     10 C1           0.1940    -1.5820    -1.9140 c3         1 U2Z      -0.031800
     11 C15         -1.2610     2.0750    -0.6600 c3         1 U2Z       0.192100
     12 C5           3.7910     0.4510     1.1180 c3         1 U2Z       0.136300
     13 N7           1.2830     0.3550     1.1720 nd         1 U2Z      -0.514800
     14 N8           0.3770    -0.2060     0.2900 na         1 U2Z       0.216000
     15 N16         -1.3660     2.0260    -2.1330 n8         1 U2Z      -0.995200
     16 O6           4.5160    -0.6710     1.6560 oh         1 U2Z      -0.653000
     17 H12         -4.8860    -0.4710     0.8970 ha         1 U2Z       0.116000
     18 H11         -3.4310    -2.3390     1.6740 ha         1 U2Z       0.119000
     19 H13         -3.8800     1.5330    -0.1640 ha         1 U2Z       0.113000
     20 H10         -0.9650    -2.1970     1.3840 ha         1 U2Z       0.130000
     21 H3           3.0820    -1.0250    -1.2470 ha         1 U2Z       0.146000
     22 H151        -1.8150     2.9540    -0.2980 h1         1 U2Z       0.045700
     23 H152        -0.2080     2.2160    -0.3830 h1         1 U2Z       0.045700
     24 H51C         4.3630     0.9120     0.3020 h1         1 U2Z       0.030200
     25 H52C         3.6570     1.2190     1.8920 h1         1 U2Z       0.030200
     26 H11C        -0.3320    -2.4620    -1.5270 hc         1 U2Z       0.053700
     27 H12C        -0.5470    -0.9260    -2.3850 hc         1 U2Z       0.053700
     28 H13C         0.8830    -1.9220    -2.6960 hc         1 U2Z       0.053700
     29 H161        -2.3580     1.9750    -2.3910 hn         1 U2Z       0.395000
     30 H162        -1.0590     2.9260    -2.5200 hn         1 U2Z       0.395000
     31 H6           5.3730    -0.3250     1.9920 ho         1 U2Z       0.439000
@<TRIPOS>BOND
     1     1     2 ar  
     2     1     3 ar  
     3     1    17 1   
     4     2     4 ar  
     5     2    18 1   
     6     3     6 ar  
     7     3    19 1   
     8     4     7 ar  
     9     4    20 1   
    10     5     8 1   
    11     5     9 2   
    12     5    21 1   
    13     6     7 ar  
    14     6    11 1   
    15     7    14 1   
    16     8    12 1   
    17     8    13 2   
    18     9    10 1   
    19     9    14 1   
    20    10    26 1   
    21    10    27 1   
    22    10    28 1   
    23    11    15 1   
    24    11    22 1   
    25    11    23 1   
    26    12    16 1   
    27    12    24 1   
    28    12    25 1   
    29    13    14 1   
    30    15    29 1   
    31    15    30 1   
    32    16    31 1   
@<TRIPOS>SUBSTRUCTURE
     1 U2Z         1 TEMP              0 ****  ****    0 ROOT
