@<TRIPOS>MOLECULE
U30
   54    57     1     0     0
SMALL
abcg2


@<TRIPOS>ATOM
      1 N1          19.3470     5.8810    19.3790 nb         1 U30      -0.248000
      2 N3          17.6620     7.3330    18.5010 nb         1 U30      -0.258000
      3 C4          19.6630     3.6220    18.6330 cp         1 U30      -0.156500
      4 C5          18.9170     4.9070    18.5730 cp         1 U30       0.209500
      5 C6          18.7010     7.0590    19.3050 ca         1 U30       0.383900
      6 C7          17.2520     6.3500    17.6940 ca         1 U30       0.154000
      7 C8          16.1290     6.6490    16.8110 cc         1 U30       0.119000
      8 C13         13.9030     9.7500    11.6050 ca         1 U30      -0.066000
      9 C15         15.7990    10.2970    12.9550 ca         1 U30       0.333300
     10 C17         18.2110    10.2510    12.2700 c3         1 U30      -0.096100
     11 C20         21.0570     3.6840    18.5480 ca         1 U30      -0.048000
     12 C21         21.8370     2.5370    18.5550 ca         1 U30      -0.127000
     13 C22         21.2230     1.3010    18.6630 ca         1 U30      -0.059000
     14 N           18.7510    -1.1030    18.9960 n1         1 U30      -0.461000
     15 O           17.5660    10.6960    14.5410 oh         1 U30      -0.667000
     16 C1          19.8310     1.2320    18.7740 ca         1 U30      -0.034000
     17 C11         14.0600     9.1070    13.8960 ca         1 U30       0.330300
     18 C12         13.3460     9.1080    12.7090 ca         1 U30      -0.138000
     19 C14         15.1440    10.3520    11.7240 ca         1 U30      -0.136000
     20 C18         17.1230    12.4290    12.9360 c3         1 U30      -0.096100
     21 C19         17.8610     5.0960    17.6890 ca         1 U30      -0.240000
     22 C2          19.0180     2.3830    18.7640 ca         1 U30      -0.005300
     23 C3          17.5300     2.2450    18.9240 c3         1 U30      -0.060800
     24 C9          15.4120     7.8220    16.6820 cd         1 U30      -0.119000
     25 N2          19.1540     8.0600    20.0960 nv         1 U30      -1.068900
     26 N4          14.4870     7.5520    15.7460 na         1 U30       0.109800
     27 N5          15.2560     9.6930    14.0070 nb         1 U30      -0.701000
     28 N6          14.6140     6.2890    15.2960 nd         1 U30      -0.202800
     29 N7          15.6000     5.7410    15.9400 nc         1 U30      -0.338000
     30 H7          13.2690     9.2090    15.8910 h1         1 U30       0.082200
     31 H6          12.6190     7.8780    14.9220 h1         1 U30       0.082200
     32 H9          13.3720     9.7710    10.6620 ha         1 U30       0.127000
     33 H13         19.1960    10.6710    12.4770 hc         1 U30       0.045867
     34 H12         18.2390     9.1770    12.4580 hc         1 U30       0.045867
     35 H11         17.9770    10.4170    11.2170 hc         1 U30       0.045867
     36 H19         21.5270     4.6550    18.4630 ha         1 U30       0.131000
     37 H20         22.9130     2.6060    18.4750 ha         1 U30       0.123000
     38 H21         21.8050     0.3890    18.6710 ha         1 U30       0.125000
     39 H14         16.8310    10.1960    14.9430 ho         1 U30       0.475000
     40 H8          12.3850     8.6160    12.6470 ha         1 U30       0.131000
     41 H10         15.5980    10.8500    10.8790 ha         1 U30       0.132000
     42 H15         16.3850    12.8930    13.5930 hc         1 U30       0.045867
     43 H17         18.1020    12.8620    13.1470 hc         1 U30       0.045867
     44 H16         16.8620    12.6530    11.9010 hc         1 U30       0.045867
     45 H18         17.5310     4.3190    17.0200 ha         1 U30       0.155000
     46 H2          17.0520     2.0410    17.9620 hc         1 U30       0.056367
     47 H1          17.2900     1.4170    19.5900 hc         1 U30       0.056367
     48 H           17.0850     3.1510    19.3280 hc         1 U30       0.056367
     49 H5          15.4890     8.7780    17.1660 h4         1 U30       0.183000
     50 H4          18.5970     8.8930    20.1910 hn         1 U30       0.498000
     51 H3          19.8130     7.8410    20.8230 hn         1 U30       0.498000
     52 C10         13.5140     8.4530    15.1440 c3         1 U30       0.041300
     53 C           19.2290    -0.0570    18.9020 cg         1 U30       0.328000
     54 C16         17.1770    10.9180    13.1830 c3         1 U30       0.131700
@<TRIPOS>BOND
     1     1     4 ar  
     2     1     5 ar  
     3     2     5 ar  
     4     2     6 ar  
     5     3     4 1   
     6     3    11 ar  
     7     3    22 ar  
     8     4    21 ar  
     9     5    25 1   
    10     6     7 1   
    11     6    21 ar  
    12     7    24 2   
    13     7    29 1   
    14     8    18 ar  
    15     8    19 ar  
    16     8    32 1   
    17     9    19 ar  
    18     9    27 ar  
    19     9    54 1   
    20    10    33 1   
    21    10    34 1   
    22    10    35 1   
    23    10    54 1   
    24    11    12 ar  
    25    11    36 1   
    26    12    13 ar  
    27    12    37 1   
    28    13    16 ar  
    29    13    38 1   
    30    14    53 3   
    31    15    39 1   
    32    15    54 1   
    33    16    22 ar  
    34    16    53 1   
    35    17    18 ar  
    36    17    27 ar  
    37    17    52 1   
    38    18    40 1   
    39    19    41 1   
    40    20    42 1   
    41    20    43 1   
    42    20    44 1   
    43    20    54 1   
    44    21    45 1   
    45    22    23 1   
    46    23    46 1   
    47    23    47 1   
    48    23    48 1   
    49    24    26 1   
    50    24    49 1   
    51    25    50 1   
    52    25    51 1   
    53    26    28 1   
    54    26    52 1   
    55    28    29 2   
    56    30    52 1   
    57    31    52 1   
@<TRIPOS>SUBSTRUCTURE
     1 U30         1 TEMP              0 ****  ****    0 ROOT
