@<TRIPOS>MOLECULE
U30
   54    57     1     0     0
SMALL
No Charge or Current Charge


@<TRIPOS>ATOM
      1 N1          19.9610     5.2960    18.7250 nb         1 U30      -0.248000
      2 N3          18.4720     6.8880    17.7140 nb         1 U30      -0.258000
      3 C4          19.5680     2.8970    18.7420 cp         1 U30      -0.156500
      4 C5          19.1360     4.2860    18.3890 cp         1 U30       0.209500
      5 C6          19.5810     6.5310    18.3750 ca         1 U30       0.383900
      6 C7          17.6350     5.8910    17.3450 ca         1 U30       0.154000
      7 C8          16.4080     6.2270    16.6030 cc         1 U30       0.119000
      8 C13         15.5930     8.9570    11.5340 ca         1 U30      -0.066000
      9 C15         15.7040    10.9700    12.8890 ca         1 U30       0.333300
     10 C17         17.6300    12.6430    13.0120 c3         1 U30      -0.096100
     11 C20         20.8730     2.4810    18.3790 ca         1 U30      -0.048000
     12 C21         21.3240     1.1830    18.6460 ca         1 U30      -0.127000
     13 C22         20.4770     0.2680    19.2820 ca         1 U30      -0.059000
     14 N           17.6920    -1.1480    20.8390 n1         1 U30      -0.461000
     15 O           15.6970    12.8580    14.4220 oh         1 U30      -0.667000
     16 C1          19.1790     0.6500    19.6700 ca         1 U30      -0.034000
     17 C11         14.7300     9.0530    13.8000 ca         1 U30       0.330300
     18 C12         14.9640     8.3260    12.6180 ca         1 U30      -0.138000
     19 C14         15.9680    10.3020    11.6760 ca         1 U30      -0.136000
     20 C18         15.3650    13.3770    12.1000 c3         1 U30      -0.096100
     21 C19         17.9500     4.5540    17.6670 ca         1 U30      -0.240000
     22 C2          18.7140     1.9710    19.4200 ca         1 U30      -0.005300
     23 C3          17.3180     2.3930    19.9020 c3         1 U30      -0.060800
     24 C9          16.0840     7.5070    16.2750 cd         1 U30      -0.119000
     25 N2          20.4150     7.5390    18.7310 nv         1 U30      -1.068900
     26 N4          14.8900     7.3490    15.6060 na         1 U30       0.109800
     27 N5          15.0930    10.3520    13.9390 nb         1 U30      -0.701000
     28 N6          14.5360     6.0200    15.5490 nd         1 U30      -0.202800
     29 N7          15.4700     5.3370    16.1640 nc         1 U30      -0.338000
     30 H7          13.8460     9.1530    15.7610 h1         1 U30       0.082200
     31 H6          13.1090     7.9630    14.6790 h1         1 U30       0.082200
     32 H9          15.7870     8.4170    10.6090 ha         1 U30       0.127000
     33 H13         17.9120    13.6810    13.2270 hc         1 U30       0.045867
     34 H12         18.1450    11.9940    13.7300 hc         1 U30       0.045867
     35 H11         17.9970    12.3960    12.0080 hc         1 U30       0.045867
     36 H19         21.5390     3.1740    17.8670 ha         1 U30       0.131000
     37 H20         22.3270     0.8830    18.3510 ha         1 U30       0.123000
     38 H21         20.8330    -0.7430    19.4760 ha         1 U30       0.125000
     39 H14         15.2880    12.0290    14.7800 ho         1 U30       0.475000
     40 H8          14.6620     7.2840    12.5470 ha         1 U30       0.131000
     41 H10         16.4580    10.8200    10.8560 ha         1 U30       0.132000
     42 H15         14.2790    13.2440    12.1730 hc         1 U30       0.045867
     43 H17         15.5940    14.4310    12.2960 hc         1 U30       0.045867
     44 H16         15.6660    13.1530    11.0690 hc         1 U30       0.045867
     45 H18         17.3000     3.7400    17.3600 ha         1 U30       0.155000
     46 H2          16.5460     2.0910    19.1830 hc         1 U30       0.056367
     47 H1          17.0630     1.9520    20.8720 hc         1 U30       0.056367
     48 H           17.2380     3.4760    20.0460 hc         1 U30       0.056367
     49 H5          16.5730     8.4570    16.4460 h4         1 U30       0.183000
     50 H4          20.0670     8.4940    18.6850 hn         1 U30       0.498000
     51 H3          21.1440     7.3510    19.4150 hn         1 U30       0.498000
     52 C10         14.0640     8.3980    14.9970 c3         1 U30       0.041300
     53 C           18.3530    -0.3390    20.3170 cg         1 U30       0.328000
     54 C16         16.0970    12.4560    13.1050 c3         1 U30       0.131700
@<TRIPOS>BOND
     1     1     4 ar  
     2     1     5 ar  
     3     2     5 ar  
     4     2     6 ar  
     5     3     4 1   
     6     3    11 ar  
     7     3    22 ar  
     8     4    21 ar  
     9     5    25 1   
    10     6     7 1   
    11     6    21 ar  
    12     7    24 2   
    13     7    29 1   
    14     8    18 ar  
    15     8    19 ar  
    16     8    32 1   
    17     9    19 ar  
    18     9    27 ar  
    19     9    54 1   
    20    10    33 1   
    21    10    34 1   
    22    10    35 1   
    23    10    54 1   
    24    11    12 ar  
    25    11    36 1   
    26    12    13 ar  
    27    12    37 1   
    28    13    16 ar  
    29    13    38 1   
    30    14    53 3   
    31    15    39 1   
    32    15    54 1   
    33    16    22 ar  
    34    16    53 1   
    35    17    18 ar  
    36    17    27 ar  
    37    17    52 1   
    38    18    40 1   
    39    19    41 1   
    40    20    42 1   
    41    20    43 1   
    42    20    44 1   
    43    20    54 1   
    44    21    45 1   
    45    22    23 1   
    46    23    46 1   
    47    23    47 1   
    48    23    48 1   
    49    24    26 1   
    50    24    49 1   
    51    25    50 1   
    52    25    51 1   
    53    26    28 1   
    54    26    52 1   
    55    28    29 2   
    56    30    52 1   
    57    31    52 1   
@<TRIPOS>SUBSTRUCTURE
     1 U30         1 TEMP              0 ****  ****    0 ROOT
