@<TRIPOS>MOLECULE
U32
   34    35     1     0     0
SMALL
No Charge or Current Charge


@<TRIPOS>ATOM
      1 O1          -1.1290    -1.1110    -5.3550 o          1 U32      -0.547500
      2 O2           1.1690    -0.0410    -5.7730 o          1 U32      -0.547500
      3 C2          -1.5060     0.3040     3.2380 cc         1 U32       0.306900
      4 C3          -0.6070     0.0690     4.2530 cd         1 U32      -0.214300
      5 C4          -0.8820     0.0470     5.7380 c3         1 U32       0.015600
      6 C5          -0.6010    -1.3450     6.3440 c3         1 U32      -0.087100
      7 C6          -0.1060     1.1600     6.4740 c3         1 U32      -0.087100
      8 S7           1.0000    -0.2100     3.6010 ss         1 U32      -0.105400
      9 C8           0.2830    -0.0110     2.0090 cd         1 U32       0.703300
     10 N9          -0.9990     0.2710     1.9630 nc         1 U32      -0.703000
     11 N11         -0.7860     1.3260    -5.2660 n8         1 U32      -0.997100
     12 C13         -0.7730    -0.5130    -2.3740 ca         1 U32       0.026000
     13 C14          0.2290    -0.1040    -3.2740 ca         1 U32      -0.319500
     14 C16          1.4800     0.3180    -2.7830 ca         1 U32       0.026000
     15 C17          1.7160     0.3340    -1.3980 ca         1 U32      -0.185500
     16 C18          0.7170    -0.0560    -0.4940 ca         1 U32       0.370000
     17 C19         -0.5240    -0.4910    -0.9910 ca         1 U32      -0.185500
     18 S16         -0.0880    -0.1340    -5.0360 sy         1 U32       1.130600
     19 H2          -2.5610     0.5130     3.3620 h4         1 U32       0.043100
     20 H4          -1.9510     0.2500     5.8920 hc         1 U32       0.058700
     21 H5C1        -0.8800    -1.3690     7.4050 hc         1 U32       0.039367
     22 H5C2        -1.1820    -2.1150     5.8230 hc         1 U32       0.039367
     23 H5C3         0.4620    -1.6020     6.2640 hc         1 U32       0.039367
     24 H6C1         0.9760     1.0010     6.3990 hc         1 U32       0.039367
     25 H6C2        -0.3410     2.1410     6.0430 hc         1 U32       0.039367
     26 H6C3        -0.3760     1.1820     7.5370 hc         1 U32       0.039367
     27 H111        -0.2190     1.6940    -6.0260 hn         1 U32       0.469000
     28 H112        -0.4720     1.8450    -4.4510 hn         1 U32       0.469000
     29 H13         -1.7430    -0.8510    -2.7380 ha         1 U32       0.136500
     30 H90          2.0120     0.0140     1.0730 hn         1 U32       0.508000
     31 H16          2.2710     0.6310    -3.4640 ha         1 U32       0.136500
     32 H17          2.6840     0.6610    -1.0310 ha         1 U32       0.137000
     33 H19         -1.3010    -0.8310    -0.3170 ha         1 U32       0.137000
     34 N90          1.0190    -0.0340     0.8680 nu         1 U32      -0.925900
@<TRIPOS>BOND
     1     1    18 2   
     2     2    18 2   
     3     3     4 2   
     4     3    10 1   
     5     3    19 1   
     6     4     5 1   
     7     4     8 1   
     8     5     6 1   
     9     5     7 1   
    10     5    20 1   
    11     6    21 1   
    12     6    22 1   
    13     6    23 1   
    14     7    24 1   
    15     7    25 1   
    16     7    26 1   
    17     8     9 1   
    18     9    10 2   
    19     9    34 1   
    20    11    18 1   
    21    11    27 1   
    22    11    28 1   
    23    12    13 ar  
    24    12    17 ar  
    25    12    29 1   
    26    13    14 ar  
    27    13    18 1   
    28    14    15 ar  
    29    14    31 1   
    30    15    16 ar  
    31    15    32 1   
    32    16    17 ar  
    33    16    34 1   
    34    17    33 1   
    35    30    34 1   
@<TRIPOS>SUBSTRUCTURE
     1 U32         1 TEMP              0 ****  ****    0 ROOT
