@<TRIPOS>MOLECULE
U32
   34    35     1     0     0
SMALL
bcc


@<TRIPOS>ATOM
      1 O1          -1.2180    -0.9170    -5.1960 o          1 U32      -0.618300
      2 O2           1.1990    -0.4230    -5.6030 o          1 U32      -0.618300
      3 C2          -1.5670    -0.0770     3.2300 cc         1 U32       0.372200
      4 C3          -0.6750    -0.0380     4.2450 cd         1 U32      -0.134700
      5 C4          -0.9150    -0.0580     5.7210 c3         1 U32       0.015600
      6 C5          -0.3220    -1.3090     6.3700 c3         1 U32      -0.087100
      7 C6          -0.4000     1.2130     6.3960 c3         1 U32      -0.087100
      8 S7           0.9260     0.0390     3.5680 ss         1 U32      -0.250300
      9 C8           0.2240     0.0110     1.9720 cd         1 U32       0.703300
     10 N9          -1.0660    -0.0490     1.9540 nc         1 U32      -0.703000
     11 N11         -0.5330     1.4670    -5.2050 n8         1 U32      -0.886700
     12 C13         -0.8010    -0.0910    -2.3070 ca         1 U32       0.008000
     13 C14          0.2660    -0.0500    -3.1950 ca         1 U32      -0.319500
     14 C16          1.5700     0.0240    -2.7200 ca         1 U32       0.008000
     15 C17          1.7980     0.0590    -1.3610 ca         1 U32      -0.203500
     16 C18          0.7310     0.0160    -0.4520 ca         1 U32       0.231600
     17 C19         -0.5780    -0.0600    -0.9430 ca         1 U32      -0.203500
     18 S16         -0.0490    -0.0910    -4.9250 sy         1 U32       1.272200
     19 H2          -2.6380    -0.1270     3.3730 h4         1 U32       0.043100
     20 H4          -2.0020    -0.0930     5.8440 hc         1 U32       0.058700
     21 H5C1        -0.5550    -1.3340     7.4350 hc         1 U32       0.039367
     22 H5C2        -0.7180    -2.2170     5.9150 hc         1 U32       0.039367
     23 H5C3         0.7650    -1.3300     6.2710 hc         1 U32       0.039367
     24 H6C1         0.6850     1.2980     6.3050 hc         1 U32       0.039367
     25 H6C2        -0.8450     2.1050     5.9550 hc         1 U32       0.039367
     26 H6C3        -0.6390     1.2040     7.4600 hc         1 U32       0.039367
     27 H111        -0.9690     1.5570    -6.1190 hn         1 U32       0.413800
     28 H112         0.2300     2.1310    -5.1210 hn         1 U32       0.413800
     29 H13         -1.8190    -0.1520    -2.6670 ha         1 U32       0.154500
     30 H90          2.0400     0.1060     1.0890 hn         1 U32       0.452800
     31 H16          2.4100     0.0550    -3.4000 ha         1 U32       0.154500
     32 H17          2.8160     0.1170    -0.9960 ha         1 U32       0.155000
     33 H19         -1.4140    -0.0960    -0.2650 ha         1 U32       0.155000
     34 N90          1.0530     0.0510     0.8890 nu         1 U32      -0.732300
@<TRIPOS>BOND
     1     1    18 2   
     2     2    18 2   
     3     3     4 2   
     4     3    10 1   
     5     3    19 1   
     6     4     5 1   
     7     4     8 1   
     8     5     6 1   
     9     5     7 1   
    10     5    20 1   
    11     6    21 1   
    12     6    22 1   
    13     6    23 1   
    14     7    24 1   
    15     7    25 1   
    16     7    26 1   
    17     8     9 1   
    18     9    10 2   
    19     9    34 1   
    20    11    18 1   
    21    11    27 1   
    22    11    28 1   
    23    12    13 ar  
    24    12    17 ar  
    25    12    29 1   
    26    13    14 ar  
    27    13    18 1   
    28    14    15 ar  
    29    14    31 1   
    30    15    16 ar  
    31    15    32 1   
    32    16    17 ar  
    33    16    34 1   
    34    17    33 1   
    35    30    34 1   
@<TRIPOS>SUBSTRUCTURE
     1 U32         1 TEMP              0 ****  ****    0 ROOT
