@<TRIPOS>MOLECULE
U35
   60    62     1     0     0
SMALL
abcg2


@<TRIPOS>ATOM
      1 C14          5.5720    -7.0720     9.5390 ca         1 U35      -0.084500
      2 C11         -0.9180   -10.2390     7.2600 c3         1 U35      -0.085100
      3 C10         -0.0140    -9.0250     7.0950 c3         1 U35      -0.076400
      4 C12          3.5860    -5.5330     9.0850 c3         1 U35       0.150300
      5 C13          4.8580    -5.9110     9.8090 ca         1 U35      -0.040300
      6 C02          5.3180    -5.4750     6.6440 c          1 U35       0.716000
      7 C04          3.7690    -5.6660     6.6040 c3         1 U35      -0.034300
      8 C06          2.6590    -7.4440     7.9650 c          1 U35       0.596100
      9 C08          2.3680    -8.2150     6.6880 c3         1 U35      -0.155400
     10 C09          1.4460    -9.4100     6.8870 c3         1 U35      -0.058400
     11 C15          6.7630    -7.3400    10.1950 ca         1 U35      -0.091000
     12 C16          7.2720    -6.4590    11.1440 cp         1 U35      -0.069000
     13 C17          8.5810    -6.7170    11.7830 cp         1 U35       0.031000
     14 C18          8.6640    -6.8410    13.1680 ca         1 U35      -0.116000
     15 C19          9.8650    -7.1440    13.7910 ca         1 U35      -0.109000
     16 C20         11.0100    -7.3340    13.0300 ca         1 U35      -0.134000
     17 C21         10.9490    -7.1960    11.6530 ca         1 U35      -0.088000
     18 C22          9.7480    -6.8770    11.0220 ca         1 U35      -0.101500
     19 C23          9.7530    -6.6770     9.5700 cc         1 U35       0.540500
     20 C28          6.5310    -5.3230    11.4570 ca         1 U35      -0.091000
     21 C29          5.3440    -5.0540    10.7940 ca         1 U35      -0.084500
     22 C30          2.9900    -4.3920     6.2520 c3         1 U35      -0.063700
     23 C31          1.4810    -4.5850     6.3640 c3         1 U35      -0.081100
     24 C32          3.3550    -3.9470     4.8380 c3         1 U35      -0.081100
     25 N05          3.3250    -6.2670     7.8650 n          1 U35      -0.371800
     26 N24          9.1430    -5.6630     8.9250 nc         1 U35      -0.339000
     27 N25          9.4070    -5.8140     7.6710 nd         1 U35      -0.117800
     28 N26         10.1520    -6.8730     7.5830 na         1 U35       0.099600
     29 N27         10.4040    -7.4540     8.7240 nd         1 U35      -0.549800
     30 O07          2.3300    -7.8900     9.0580 o          1 U35      -0.656100
     31 H1           5.2270    -7.7640     8.7840 ha         1 U35       0.115000
     32 H2          -1.9620    -9.9480     7.3810 hc         1 U35       0.023033
     33 H3          -0.8560   -10.8960     6.3910 hc         1 U35       0.023033
     34 H4          -0.6340   -10.8250     8.1360 hc         1 U35       0.023033
     35 H5          -0.1070    -8.3760     7.9690 hc         1 U35       0.041700
     36 H6          -0.3520    -8.4330     6.2380 hc         1 U35       0.041700
     37 H7           3.6340    -4.4720     8.8440 h1         1 U35       0.057700
     38 H8           2.7400    -5.6520     9.7640 h1         1 U35       0.057700
     39 H9           3.5720    -6.3920     5.8170 h1         1 U35       0.041700
     40 H10          3.3270    -8.5440     6.2740 hc         1 U35       0.066200
     41 H11          1.9330    -7.5580     5.9310 hc         1 U35       0.066200
     42 H12          1.5170   -10.0400     5.9950 hc         1 U35       0.038200
     43 H13          1.7940   -10.0250     7.7210 hc         1 U35       0.038200
     44 H14          7.3080    -8.2450     9.9520 ha         1 U35       0.099500
     45 H15          7.7660    -6.7210    13.7610 ha         1 U35       0.116000
     46 H16          9.9030    -7.2420    14.8680 ha         1 U35       0.101000
     47 H17         11.9500    -7.5770    13.5070 ha         1 U35       0.102000
     48 H18         11.8480    -7.3140    11.0620 ha         1 U35       0.115000
     49 H19          6.9040    -4.6230    12.1950 ha         1 U35       0.099500
     50 H20          4.8020    -4.1450    11.0290 ha         1 U35       0.115000
     51 H21          3.2850    -3.5930     6.9370 hc         1 U35       0.065700
     52 H22          1.1660    -4.8350     7.3770 hc         1 U35       0.021867
     53 H23          0.9590    -3.6710     6.0790 hc         1 U35       0.021867
     54 H24          1.1290    -5.3800     5.7000 hc         1 U35       0.021867
     55 H25          4.4210    -3.7460     4.7350 hc         1 U35       0.021867
     56 H26          3.0830    -4.7100     4.1050 hc         1 U35       0.021867
     57 H27          2.8240    -3.0320     4.5710 hc         1 U35       0.021867
     58 H28         10.5000    -7.2190     6.6970 hn         1 U35       0.397000
     59 O01          5.9850    -6.4630     6.2820 o          1 U35      -0.712000
     60 O03          5.7500    -4.3780     7.0440 o          1 U35      -0.712000
@<TRIPOS>BOND
     1     1     5 ar  
     2     1    11 ar  
     3     1    31 1   
     4     2     3 1   
     5     2    32 1   
     6     2    33 1   
     7     2    34 1   
     8     3    10 1   
     9     3    35 1   
    10     3    36 1   
    11     4     5 1   
    12     4    25 1   
    13     4    37 1   
    14     4    38 1   
    15     5    21 ar  
    16     6     7 1   
    17     6    59 1   
    18     6    60 1   
    19     7    22 1   
    20     7    25 1   
    21     7    39 1   
    22     8     9 1   
    23     8    25 1   
    24     8    30 2   
    25     9    10 1   
    26     9    40 1   
    27     9    41 1   
    28    10    42 1   
    29    10    43 1   
    30    11    12 ar  
    31    11    44 1   
    32    12    13 1   
    33    12    20 ar  
    34    13    14 ar  
    35    13    18 ar  
    36    14    15 ar  
    37    14    45 1   
    38    15    16 ar  
    39    15    46 1   
    40    16    17 ar  
    41    16    47 1   
    42    17    18 ar  
    43    17    48 1   
    44    18    19 1   
    45    19    26 1   
    46    19    29 2   
    47    20    21 ar  
    48    20    49 1   
    49    21    50 1   
    50    22    23 1   
    51    22    24 1   
    52    22    51 1   
    53    23    52 1   
    54    23    53 1   
    55    23    54 1   
    56    24    55 1   
    57    24    56 1   
    58    24    57 1   
    59    26    27 2   
    60    27    28 1   
    61    28    29 1   
    62    28    58 1   
@<TRIPOS>SUBSTRUCTURE
     1 U35         1 TEMP              0 ****  ****    0 ROOT
