@<TRIPOS>MOLECULE
U35
   60    62     1     0     0
SMALL
No Charge or Current Charge


@<TRIPOS>ATOM
      1 C14          6.5190    -6.2240     8.4500 ca         1 U35      -0.084500
      2 C11         -0.8730    -9.9210     8.9770 c3         1 U35      -0.085100
      3 C10         -0.0880    -8.7850     8.2920 c3         1 U35      -0.076400
      4 C12          4.2590    -5.0680     8.2010 c3         1 U35       0.150300
      5 C13          5.3670    -5.6840     9.0530 ca         1 U35      -0.040300
      6 C02          4.9530    -5.7100     5.2060 c          1 U35       0.716000
      7 C04          3.5230    -5.7340     5.8440 c3         1 U35      -0.034300
      8 C06          2.7260    -7.0330     7.9210 c          1 U35       0.596100
      9 C08          2.0790    -8.1210     7.0300 c3         1 U35      -0.155400
     10 C09          1.2850    -9.2420     7.7470 c3         1 U35      -0.058400
     11 C15          7.5380    -6.7850     9.2380 ca         1 U35      -0.091000
     12 C16          7.4370    -6.8120    10.6500 cp         1 U35      -0.069000
     13 C17          8.5100    -7.4260    11.4900 cp         1 U35       0.031000
     14 C18          8.1470    -8.4660    12.3820 ca         1 U35      -0.116000
     15 C19          9.1060    -9.1360    13.1530 ca         1 U35      -0.109000
     16 C20         10.4550    -8.7790    13.0420 ca         1 U35      -0.134000
     17 C21         10.8390    -7.7460    12.1740 ca         1 U35      -0.088000
     18 C22          9.8850    -7.0430    11.3980 ca         1 U35      -0.101500
     19 C23         10.3780    -5.9350    10.5610 cc         1 U35       0.540500
     20 C28          6.2700    -6.2770    11.2430 ca         1 U35      -0.091000
     21 C29          5.2500    -5.7150    10.4560 ca         1 U35      -0.084500
     22 C30          2.6710    -4.4660     5.4900 c3         1 U35      -0.063700
     23 C31          1.2760    -4.4690     6.1670 c3         1 U35      -0.081100
     24 C32          2.5110    -4.2860     3.9600 c3         1 U35      -0.081100
     25 N05          3.5440    -6.0340     7.3240 n          1 U35      -0.371800
     26 N24          9.6580    -4.7880    10.3990 nc         1 U35      -0.339000
     27 N25         10.3660    -4.0140     9.6280 nd         1 U35      -0.117800
     28 N26         11.5060    -4.7210     9.3530 na         1 U35       0.099600
     29 N27         11.5420    -5.9590     9.9470 nd         1 U35      -0.549800
     30 O07          2.5720    -7.0570     9.1370 o          1 U35      -0.656100
     31 H1           6.6280    -6.2110     7.3700 ha         1 U35       0.115000
     32 H2          -1.8370    -9.5510     9.3440 hc         1 U35       0.023033
     33 H3          -1.0640   -10.7390     8.2720 hc         1 U35       0.023033
     34 H4          -0.3110   -10.3210     9.8300 hc         1 U35       0.023033
     35 H5           0.0490    -7.9690     9.0110 hc         1 U35       0.041700
     36 H6          -0.6900    -8.3840     7.4670 hc         1 U35       0.041700
     37 H7           4.6970    -4.2660     7.5950 h1         1 U35       0.057700
     38 H8           3.5200    -4.5870     8.8560 h1         1 U35       0.057700
     39 H9           3.0300    -6.5600     5.3260 h1         1 U35       0.041700
     40 H10          2.8780    -8.5430     6.4090 hc         1 U35       0.066200
     41 H11          1.4570    -7.6320     6.2740 hc         1 U35       0.066200
     42 H12          1.1200   -10.0580     7.0320 hc         1 U35       0.038200
     43 H13          1.8920    -9.6600     8.5610 hc         1 U35       0.038200
     44 H14          8.4150    -7.2060     8.7530 ha         1 U35       0.099500
     45 H15          7.1050    -8.7670    12.4560 ha         1 U35       0.116000
     46 H16          8.8050    -9.9360    13.8260 ha         1 U35       0.101000
     47 H17         11.2050    -9.2990    13.6350 ha         1 U35       0.102000
     48 H18         11.8920    -7.4750    12.1210 ha         1 U35       0.115000
     49 H19          6.1600    -6.2920    12.3250 ha         1 U35       0.099500
     50 H20          4.3650    -5.3080    10.9390 ha         1 U35       0.115000
     51 H21          3.2030    -3.5830     5.8660 hc         1 U35       0.065700
     52 H22          1.3610    -4.4750     7.2600 hc         1 U35       0.021867
     53 H23          0.7110    -3.5720     5.8880 hc         1 U35       0.021867
     54 H24          0.6940    -5.3460     5.8600 hc         1 U35       0.021867
     55 H25          3.4820    -4.1780     3.4650 hc         1 U35       0.021867
     56 H26          1.9960    -5.1490     3.5190 hc         1 U35       0.021867
     57 H27          1.9240    -3.3880     3.7350 hc         1 U35       0.021867
     58 H28         12.2510    -4.3480     8.7650 hn         1 U35       0.397000
     59 O01          5.3800    -6.7530     4.7310 o          1 U35      -0.712000
     60 O03          5.5940    -4.6670     5.2020 o          1 U35      -0.712000
@<TRIPOS>BOND
     1     1     5 ar  
     2     1    11 ar  
     3     1    31 1   
     4     2     3 1   
     5     2    32 1   
     6     2    33 1   
     7     2    34 1   
     8     3    10 1   
     9     3    35 1   
    10     3    36 1   
    11     4     5 1   
    12     4    25 1   
    13     4    37 1   
    14     4    38 1   
    15     5    21 ar  
    16     6     7 1   
    17     6    59 1   
    18     6    60 1   
    19     7    22 1   
    20     7    25 1   
    21     7    39 1   
    22     8     9 1   
    23     8    25 1   
    24     8    30 2   
    25     9    10 1   
    26     9    40 1   
    27     9    41 1   
    28    10    42 1   
    29    10    43 1   
    30    11    12 ar  
    31    11    44 1   
    32    12    13 1   
    33    12    20 ar  
    34    13    14 ar  
    35    13    18 ar  
    36    14    15 ar  
    37    14    45 1   
    38    15    16 ar  
    39    15    46 1   
    40    16    17 ar  
    41    16    47 1   
    42    17    18 ar  
    43    17    48 1   
    44    18    19 1   
    45    19    26 1   
    46    19    29 2   
    47    20    21 ar  
    48    20    49 1   
    49    21    50 1   
    50    22    23 1   
    51    22    24 1   
    52    22    51 1   
    53    23    52 1   
    54    23    53 1   
    55    23    54 1   
    56    24    55 1   
    57    24    56 1   
    58    24    57 1   
    59    26    27 2   
    60    27    28 1   
    61    28    29 1   
    62    28    58 1   
@<TRIPOS>SUBSTRUCTURE
     1 U35         1 TEMP              0 ****  ****    0 ROOT
