@<TRIPOS>MOLECULE
U38
   63    67     1     0     0
SMALL
No Charge or Current Charge


@<TRIPOS>ATOM
      1 C1         133.2840   139.3590   137.5660 c6         1 U38       0.001300
      2 C2         132.8590   138.3520   136.4580 c6         1 U38       0.124300
      3 C3         133.9430   138.2840   135.3350 c6         1 U38       0.169300
      4 C4         135.3530   137.9770   135.9400 c6         1 U38       0.112300
      5 C5         135.6480   139.0260   137.0700 c6         1 U38       0.350300
      6 C6         132.1900   139.4460   138.6890 c          1 U38       0.727000
      7 C7         139.6900   137.2030   144.7140 ca         1 U38      -0.064000
      8 C8         140.4990   136.9520   145.8350 ca         1 U38      -0.202000
      9 C9         141.4500   135.9260   145.7970 ca         1 U38       0.119100
     10 C10        141.5880   135.1450   144.6440 ca         1 U38      -0.139000
     11 C11        140.7810   135.3820   143.5140 ca         1 U38      -0.047300
     12 C12        140.9880   134.4870   142.2850 c6         1 U38      -0.033100
     13 C13        139.8820   134.6140   141.2180 c6         1 U38      -0.066400
     14 C14        139.5310   136.1000   140.9910 c6         1 U38      -0.040700
     15 C15        138.5400   136.3070   139.8120 c5         1 U38      -0.071700
     16 C16        138.9510   135.8200   138.3920 c5         1 U38      -0.065400
     17 C17        137.9540   136.5860   137.4510 c5         1 U38      -0.101400
     18 C18        137.1790   137.5670   138.4020 c5         1 U38       0.169300
     19 C19        138.2050   137.8080   139.5590 c5         1 U38      -0.046000
     20 C20        137.5800   138.3980   140.8550 c6         1 U38      -0.063400
     21 C21        138.5060   138.1960   142.0940 c6         1 U38      -0.067400
     22 C22        138.9170   136.6960   142.3020 c6         1 U38      -0.012400
     23 C23        139.8290   136.4370   143.5310 ca         1 U38      -0.091300
     24 C24        139.4200   138.7140   139.1370 c3         1 U38      -0.071100
     25 O1         134.6050   138.9850   138.0650 os         1 U38      -0.447000
     26 O2         131.5670   140.5010   138.7200 o          1 U38      -0.701500
     27 O3         132.4170   138.8510   139.7370 o          1 U38      -0.701500
     28 O4         136.9210   138.8340   137.7330 os         1 U38      -0.459000
     29 O6         136.3890   137.9970   134.9230 oh         1 U38      -0.716000
     30 O7         133.5380   137.2980   134.3680 oh         1 U38      -0.669000
     31 O8         131.5700   138.6740   135.8870 oh         1 U38      -0.791000
     32 H1         133.3660   140.3630   137.1220 h1         1 U38       0.033700
     33 H2         132.8030   137.3580   136.9280 h1         1 U38       0.044700
     34 H3         133.9930   139.2720   134.8520 h1         1 U38       0.041700
     35 H4         135.3030   136.9810   136.4030 h1         1 U38       0.048700
     36 H5         135.6550   140.0280   136.6140 h2         1 U38       0.066700
     37 H7         140.3760   137.5570   146.7300 ha         1 U38       0.107000
     38 H8         142.3260   134.3470   144.6250 ha         1 U38       0.120000
     39 H9         141.0700   133.4370   142.5960 hc         1 U38       0.046700
     40 H10        141.9540   134.7430   141.8280 hc         1 U38       0.046700
     41 H11        138.9880   134.0600   141.5380 hc         1 U38       0.037700
     42 H12        140.2250   134.1450   140.2860 hc         1 U38       0.037700
     43 H13        140.4650   136.6300   140.7610 hc         1 U38       0.050700
     44 H14        137.6380   135.7610   140.1210 hc         1 U38       0.048700
     45 H15        138.8540   134.7330   138.2900 hc         1 U38       0.035700
     46 H16        139.9940   136.0660   138.1610 hc         1 U38       0.035700
     47 H17        137.2700   135.8890   136.9550 hc         1 U38       0.045200
     48 H18        138.5020   137.1150   136.6650 hc         1 U38       0.045200
     49 H19        136.2440   137.1280   138.7800 h1         1 U38       0.068700
     50 H20        137.3550   139.4650   140.7180 hc         1 U38       0.072700
     51 H21        136.6140   137.9130   141.0510 hc         1 U38       0.072700
     52 H22        139.4030   138.8230   142.0120 hc         1 U38       0.039200
     53 H23        137.9570   138.5660   142.9680 hc         1 U38       0.039200
     54 H24        137.9860   136.1470   142.5020 hc         1 U38       0.058700
     55 H25        140.2240   138.7130   139.8800 hc         1 U38       0.031700
     56 H26        139.8720   138.4110   138.1860 hc         1 U38       0.031700
     57 H27        139.1050   139.7570   139.0130 hc         1 U38       0.031700
     58 H29        141.9960   136.3220   147.5860 ho         1 U38       0.456000
     59 H30        137.2430   138.0760   135.4050 ho         1 U38       0.498000
     60 H31        132.5540   137.3460   134.3760 ho         1 U38       0.454000
     61 H32        131.5390   139.6530   135.7370 ho         1 U38       0.578000
     62 O5         142.2360   135.6820   146.8820 oh         1 U38      -0.549100
     63 H6         138.9510   137.9940   144.7860 ha         1 U38       0.120000
@<TRIPOS>BOND
     1     1     2 1   
     2     1     6 1   
     3     1    25 1   
     4     1    32 1   
     5     2     3 1   
     6     2    31 1   
     7     2    33 1   
     8     3     4 1   
     9     3    30 1   
    10     3    34 1   
    11     4     5 1   
    12     4    29 1   
    13     4    35 1   
    14     5    25 1   
    15     5    28 1   
    16     5    36 1   
    17     6    26 1   
    18     6    27 1   
    19     7     8 ar  
    20     7    23 ar  
    21     7    63 1   
    22     8     9 ar  
    23     8    37 1   
    24     9    10 ar  
    25     9    62 1   
    26    10    11 ar  
    27    10    38 1   
    28    11    12 1   
    29    11    23 ar  
    30    12    13 1   
    31    12    39 1   
    32    12    40 1   
    33    13    14 1   
    34    13    41 1   
    35    13    42 1   
    36    14    15 1   
    37    14    22 1   
    38    14    43 1   
    39    15    16 1   
    40    15    19 1   
    41    15    44 1   
    42    16    17 1   
    43    16    45 1   
    44    16    46 1   
    45    17    18 1   
    46    17    47 1   
    47    17    48 1   
    48    18    19 1   
    49    18    28 1   
    50    18    49 1   
    51    19    20 1   
    52    19    24 1   
    53    20    21 1   
    54    20    50 1   
    55    20    51 1   
    56    21    22 1   
    57    21    52 1   
    58    21    53 1   
    59    22    23 1   
    60    22    54 1   
    61    24    55 1   
    62    24    56 1   
    63    24    57 1   
    64    29    59 1   
    65    30    60 1   
    66    31    61 1   
    67    58    62 1   
@<TRIPOS>SUBSTRUCTURE
     1 U38         1 TEMP              0 ****  ****    0 ROOT
