@<TRIPOS>MOLECULE
U38
   63    67     1     0     0
SMALL
abcg2


@<TRIPOS>ATOM
      1 C1         133.6740   139.3180   137.9150 c6         1 U38       0.001300
      2 C2         133.0750   138.2870   136.9450 c6         1 U38       0.124300
      3 C3         133.8990   138.2300   135.6670 c6         1 U38       0.169300
      4 C4         135.3550   137.9670   135.9960 c6         1 U38       0.112300
      5 C5         135.8410   139.0010   137.0220 c6         1 U38       0.350300
      6 C6         132.8620   139.4040   139.2290 c          1 U38       0.727000
      7 C7         139.7710   137.5160   144.3190 ca         1 U38      -0.064000
      8 C8         140.5670   137.2910   145.4410 ca         1 U38      -0.202000
      9 C9         141.1840   136.0570   145.6100 ca         1 U38       0.119100
     10 C10        141.0010   135.0530   144.6600 ca         1 U38      -0.139000
     11 C11        140.1980   135.2800   143.5490 ca         1 U38      -0.047300
     12 C12        139.9450   134.2290   142.5090 c6         1 U38      -0.033100
     13 C13        140.1190   134.7750   141.0780 c6         1 U38      -0.066400
     14 C14        139.5930   136.2200   140.8920 c6         1 U38      -0.040700
     15 C15        138.7550   136.3730   139.6310 c5         1 U38      -0.071700
     16 C16        139.3350   135.9590   138.2710 c5         1 U38      -0.065400
     17 C17        138.4140   136.6730   137.2470 c5         1 U38      -0.101400
     18 C18        137.4870   137.5840   138.0830 c5         1 U38       0.169300
     19 C19        138.2450   137.8100   139.4010 c5         1 U38      -0.046000
     20 C20        137.3790   138.2160   140.5930 c6         1 U38      -0.063400
     21 C21        138.1510   138.0820   141.9110 c6         1 U38      -0.067400
     22 C22        138.7460   136.6850   142.1090 c6         1 U38      -0.012400
     23 C23        139.5710   136.5240   143.3640 ca         1 U38      -0.091300
     24 C24        139.3790   138.8250   139.1850 c3         1 U38      -0.071100
     25 O1         135.0290   138.9860   138.1830 os         1 U38      -0.447000
     26 O2         131.6110   139.5220   139.0530 o          1 U38      -0.701500
     27 O3         133.4530   139.3690   140.3210 o          1 U38      -0.701500
     28 O4         137.1700   138.8080   137.3950 os         1 U38      -0.459000
     29 O6         136.1230   138.0650   134.8020 oh         1 U38      -0.716000
     30 O7         133.4250   137.2040   134.7960 oh         1 U38      -0.669000
     31 O8         131.7400   138.6120   136.5940 oh         1 U38      -0.791000
     32 H1         133.6220   140.3080   137.4390 h1         1 U38       0.033700
     33 H2         133.1150   137.3000   137.4280 h1         1 U38       0.044700
     34 H3         133.8220   139.2040   135.1660 h1         1 U38       0.041700
     35 H4         135.4410   136.9630   136.4250 h1         1 U38       0.048700
     36 H5         135.8120   139.9960   136.5590 h2         1 U38       0.066700
     37 H7         140.7100   138.0740   146.1780 ha         1 U38       0.107000
     38 H8         141.4880   134.0950   144.8000 ha         1 U38       0.120000
     39 H9         138.9120   133.8780   142.6220 hc         1 U38       0.046700
     40 H10        140.5880   133.3620   142.6680 hc         1 U38       0.046700
     41 H11        139.6020   134.1010   140.3920 hc         1 U38       0.037700
     42 H12        141.1760   134.7400   140.8090 hc         1 U38       0.037700
     43 H13        140.4550   136.8900   140.8290 hc         1 U38       0.050700
     44 H14        137.8570   135.7590   139.7880 hc         1 U38       0.048700
     45 H15        139.3390   134.8780   138.1380 hc         1 U38       0.035700
     46 H16        140.3670   136.3010   138.1700 hc         1 U38       0.035700
     47 H17        137.8340   135.9690   136.6500 hc         1 U38       0.045200
     48 H18        138.9900   137.2890   136.5540 hc         1 U38       0.045200
     49 H19        136.5590   137.0650   138.3190 h1         1 U38       0.068700
     50 H20        137.0140   139.2400   140.4760 hc         1 U38       0.072700
     51 H21        136.4960   137.5690   140.6220 hc         1 U38       0.072700
     52 H22        138.9510   138.8260   141.9450 hc         1 U38       0.039200
     53 H23        137.4840   138.3130   142.7450 hc         1 U38       0.039200
     54 H24        137.9010   135.9840   142.1750 hc         1 U38       0.058700
     55 H25        140.0240   138.9000   140.0580 hc         1 U38       0.031700
     56 H26        140.0070   138.5630   138.3330 hc         1 U38       0.031700
     57 H27        138.9560   139.8120   138.9940 hc         1 U38       0.031700
     58 H29        142.0360   136.5420   147.2680 ho         1 U38       0.456000
     59 H30        137.0550   137.9850   135.0440 ho         1 U38       0.498000
     60 H31        132.4760   137.3460   134.6850 ho         1 U38       0.454000
     61 H32        131.3650   138.9740   137.4360 ho         1 U38       0.578000
     62 O5         141.9800   135.7700   146.6880 oh         1 U38      -0.549100
     63 H6         139.3040   138.4850   144.2040 ha         1 U38       0.120000
@<TRIPOS>BOND
     1     1     2 1   
     2     1     6 1   
     3     1    25 1   
     4     1    32 1   
     5     2     3 1   
     6     2    31 1   
     7     2    33 1   
     8     3     4 1   
     9     3    30 1   
    10     3    34 1   
    11     4     5 1   
    12     4    29 1   
    13     4    35 1   
    14     5    25 1   
    15     5    28 1   
    16     5    36 1   
    17     6    26 1   
    18     6    27 1   
    19     7     8 ar  
    20     7    23 ar  
    21     7    63 1   
    22     8     9 ar  
    23     8    37 1   
    24     9    10 ar  
    25     9    62 1   
    26    10    11 ar  
    27    10    38 1   
    28    11    12 1   
    29    11    23 ar  
    30    12    13 1   
    31    12    39 1   
    32    12    40 1   
    33    13    14 1   
    34    13    41 1   
    35    13    42 1   
    36    14    15 1   
    37    14    22 1   
    38    14    43 1   
    39    15    16 1   
    40    15    19 1   
    41    15    44 1   
    42    16    17 1   
    43    16    45 1   
    44    16    46 1   
    45    17    18 1   
    46    17    47 1   
    47    17    48 1   
    48    18    19 1   
    49    18    28 1   
    50    18    49 1   
    51    19    20 1   
    52    19    24 1   
    53    20    21 1   
    54    20    50 1   
    55    20    51 1   
    56    21    22 1   
    57    21    52 1   
    58    21    53 1   
    59    22    23 1   
    60    22    54 1   
    61    24    55 1   
    62    24    56 1   
    63    24    57 1   
    64    29    59 1   
    65    30    60 1   
    66    31    61 1   
    67    58    62 1   
@<TRIPOS>SUBSTRUCTURE
     1 U38         1 TEMP              0 ****  ****    0 ROOT
