@<TRIPOS>MOLECULE
U39
   45    47     1     0     0
SMALL
abcg2


@<TRIPOS>ATOM
      1 C1         150.5990   140.3480   111.2850 c          1 U39       0.626700
      2 C10        150.6920   138.9350   110.7740 ca         1 U39      -0.118600
      3 C11        150.8030   138.5530   109.4290 ca         1 U39       0.257000
      4 C12        148.3500   138.7650   107.3510 cx         1 U39      -0.475700
      5 C13        147.5930   137.9600   108.3730 cx         1 U39      -0.054400
      6 C14        146.8470   138.8540   107.4330 cx         1 U39      -0.054400
      7 C15        150.9400   137.2090   109.0920 ca         1 U39      -0.147000
      8 C16        150.9680   136.2320   110.0750 ca         1 U39      -0.080000
      9 C17        150.8260   136.5950   111.4110 ca         1 U39      -0.115000
     10 C18        150.6820   137.9320   111.7470 ca         1 U39      -0.055000
     11 C2         151.3750   142.6540   110.7930 ca         1 U39      -0.044000
     12 C3         151.8810   143.4120   109.7130 ca         1 U39       0.096100
     13 C4         152.6860   143.3720   107.4410 c3         1 U39       0.174600
     14 C5         152.9710   142.3270   106.3870 c3         1 U39      -0.099100
     15 C6         151.9830   144.7930   109.8170 ca         1 U39      -0.171000
     16 C7         151.5900   145.4320   110.9930 ca         1 U39      -0.101000
     17 C8         151.1050   144.6930   112.0600 ca         1 U39      -0.121000
     18 C9         150.9980   143.3060   111.9640 ca         1 U39      -0.100000
     19 N1         151.3150   141.2680   110.5940 ns         1 U39      -0.119000
     20 N2         150.7740   139.5240   108.3760 nu         1 U39      -0.876100
     21 O1         149.9630   140.5980   112.3060 o          1 U39      -0.590100
     22 O2         152.2430   142.6880   108.6220 os         1 U39      -0.380100
     23 O3         148.6650   140.7440   109.0110 o          1 U39      -0.526500
     24 O4         149.6250   140.9580   106.7210 o          1 U39      -0.526500
     25 S1         149.3060   140.1430   107.8680 s6         1 U39       1.247100
     26 H1         148.8070   138.2620   106.5090 h1         1 U39       0.119700
     27 H2         147.5740   136.8920   108.2110 hc         1 U39       0.089450
     28 H3         147.6670   138.2710   109.4050 hc         1 U39       0.089450
     29 H4         146.4220   139.7630   107.8360 hc         1 U39       0.089450
     30 H5         146.3050   138.4130   106.6080 hc         1 U39       0.089450
     31 H6         151.0100   136.9380   108.0460 ha         1 U39       0.113000
     32 H7         151.0830   135.1920   109.7970 ha         1 U39       0.121000
     33 H8         150.8320   135.8400   112.1860 ha         1 U39       0.125000
     34 H9         150.5790   138.2260   112.7820 ha         1 U39       0.144000
     35 H10        153.5810   143.9550   107.6760 h1         1 U39       0.036200
     36 H11        151.9010   144.0610   107.1150 h1         1 U39       0.036200
     37 H12        153.3040   142.8170   105.4710 hc         1 U39       0.049700
     38 H13        153.7570   141.6470   106.7190 hc         1 U39       0.049700
     39 H14        152.0730   141.7490   106.1680 hc         1 U39       0.049700
     40 H15        152.3650   145.3740   108.9900 ha         1 U39       0.115000
     41 H16        151.6720   146.5090   111.0640 ha         1 U39       0.111000
     42 H17        150.8040   145.1850   112.9760 ha         1 U39       0.115000
     43 H18        150.6190   142.7250   112.7880 ha         1 U39       0.148000
     44 H19        151.6890   140.9630   109.7050 hn         1 U39       0.181000
     45 H20        151.3220   139.2570   107.5650 hn         1 U39       0.483000
@<TRIPOS>BOND
     1     1     2 1   
     2     1    19 1   
     3     1    21 2   
     4     2     3 ar  
     5     2    10 ar  
     6     3     7 ar  
     7     3    20 1   
     8     4     5 1   
     9     4     6 1   
    10     4    25 1   
    11     4    26 1   
    12     5     6 1   
    13     5    27 1   
    14     5    28 1   
    15     6    29 1   
    16     6    30 1   
    17     7     8 ar  
    18     7    31 1   
    19     8     9 ar  
    20     8    32 1   
    21     9    10 ar  
    22     9    33 1   
    23    10    34 1   
    24    11    12 ar  
    25    11    18 ar  
    26    11    19 1   
    27    12    15 ar  
    28    12    22 1   
    29    13    14 1   
    30    13    22 1   
    31    13    35 1   
    32    13    36 1   
    33    14    37 1   
    34    14    38 1   
    35    14    39 1   
    36    15    16 ar  
    37    15    40 1   
    38    16    17 ar  
    39    16    41 1   
    40    17    18 ar  
    41    17    42 1   
    42    18    43 1   
    43    19    44 1   
    44    20    25 1   
    45    20    45 1   
    46    23    25 2   
    47    24    25 2   
@<TRIPOS>SUBSTRUCTURE
     1 U39         1 TEMP              0 ****  ****    0 ROOT
