@<TRIPOS>MOLECULE
U39
   45    47     1     0     0
SMALL
No Charge or Current Charge


@<TRIPOS>ATOM
      1 C1         150.5860   140.2420   111.2830 c          1 U39       0.626700
      2 C10        150.6830   138.8460   110.6930 ca         1 U39      -0.118600
      3 C11        150.8490   138.5730   109.3070 ca         1 U39       0.257000
      4 C12        148.2760   138.6100   107.6510 cx         1 U39      -0.475700
      5 C13        147.5300   138.2340   108.9160 cx         1 U39      -0.054400
      6 C14        146.7720   138.7840   107.7260 cx         1 U39      -0.054400
      7 C15        151.0300   137.2470   108.8730 ca         1 U39      -0.147000
      8 C16        151.0020   136.1790   109.7810 ca         1 U39      -0.080000
      9 C17        150.7920   136.4330   111.1410 ca         1 U39      -0.115000
     10 C18        150.6350   137.7520   111.5930 ca         1 U39      -0.055000
     11 C2         151.2190   142.6850   110.7340 ca         1 U39      -0.044000
     12 C3         151.8330   143.4480   109.7150 ca         1 U39       0.096100
     13 C4         152.8890   143.4690   107.4770 c3         1 U39       0.174600
     14 C5         153.2280   142.4110   106.4150 c3         1 U39      -0.099100
     15 C6         151.9770   144.8460   109.8650 ca         1 U39      -0.171000
     16 C7         151.5110   145.4810   111.0260 ca         1 U39      -0.101000
     17 C8         150.9010   144.7290   112.0400 ca         1 U39      -0.121000
     18 C9         150.7540   143.3380   111.8990 ca         1 U39      -0.100000
     19 N1         151.1020   141.2810   110.5210 ns         1 U39      -0.119000
     20 N2         150.8010   139.5530   108.3240 nu         1 U39      -0.876100
     21 O1         150.0940   140.4150   112.3950 o          1 U39      -0.590100
     22 O2         152.2810   142.7850   108.5860 os         1 U39      -0.380100
     23 O3         148.8470   141.1120   108.4910 o          1 U39      -0.526500
     24 O4         149.7470   140.3600   106.2280 o          1 U39      -0.526500
     25 S1         149.3940   140.0730   107.6180 s6         1 U39       1.247100
     26 H1         148.6940   137.8250   107.0260 h1         1 U39       0.119700
     27 H2         147.4180   137.1770   109.1450 hc         1 U39       0.089450
     28 H3         147.6300   138.8750   109.7900 hc         1 U39       0.089450
     29 H4         146.3670   139.7910   107.8090 hc         1 U39       0.089450
     30 H5         146.1490   138.0930   107.1620 hc         1 U39       0.089450
     31 H6         151.1660   137.0350   107.8160 ha         1 U39       0.113000
     32 H7         151.1290   135.1570   109.4280 ha         1 U39       0.121000
     33 H8         150.7620   135.6080   111.8500 ha         1 U39       0.125000
     34 H9         150.5000   137.9240   112.6590 ha         1 U39       0.144000
     35 H10        153.8080   143.9800   107.7900 h1         1 U39       0.036200
     36 H11        152.1990   144.2080   107.0490 h1         1 U39       0.036200
     37 H12        153.7040   142.8840   105.5480 hc         1 U39       0.049700
     38 H13        153.9180   141.6630   106.8220 hc         1 U39       0.049700
     39 H14        152.3190   141.9020   106.0730 hc         1 U39       0.049700
     40 H15        152.4460   145.4520   109.0950 ha         1 U39       0.115000
     41 H16        151.6220   146.5580   111.1410 ha         1 U39       0.111000
     42 H17        150.5400   145.2230   112.9400 ha         1 U39       0.115000
     43 H18        150.2750   142.7910   112.7050 ha         1 U39       0.148000
     44 H19        151.4460   140.9820   109.6160 hn         1 U39       0.181000
     45 H20        151.3220   139.3160   107.4900 hn         1 U39       0.483000
@<TRIPOS>BOND
     1     1     2 1   
     2     1    19 1   
     3     1    21 2   
     4     2     3 ar  
     5     2    10 ar  
     6     3     7 ar  
     7     3    20 1   
     8     4     5 1   
     9     4     6 1   
    10     4    25 1   
    11     4    26 1   
    12     5     6 1   
    13     5    27 1   
    14     5    28 1   
    15     6    29 1   
    16     6    30 1   
    17     7     8 ar  
    18     7    31 1   
    19     8     9 ar  
    20     8    32 1   
    21     9    10 ar  
    22     9    33 1   
    23    10    34 1   
    24    11    12 ar  
    25    11    18 ar  
    26    11    19 1   
    27    12    15 ar  
    28    12    22 1   
    29    13    14 1   
    30    13    22 1   
    31    13    35 1   
    32    13    36 1   
    33    14    37 1   
    34    14    38 1   
    35    14    39 1   
    36    15    16 ar  
    37    15    40 1   
    38    16    17 ar  
    39    16    41 1   
    40    17    18 ar  
    41    17    42 1   
    42    18    43 1   
    43    19    44 1   
    44    20    25 1   
    45    20    45 1   
    46    23    25 2   
    47    24    25 2   
@<TRIPOS>SUBSTRUCTURE
     1 U39         1 TEMP              0 ****  ****    0 ROOT
