@<TRIPOS>MOLECULE
U3A
   48    50     1     0     0
SMALL
No Charge or Current Charge


@<TRIPOS>ATOM
      1 C11        -14.3230   -40.5730   -15.8390 cc         1 U3A      -0.048200
      2 C12        -15.5890   -40.1820   -16.2640 cd         1 U3A       0.019900
      3 C25        -14.0270   -35.7960   -14.2700 c3         1 U3A       0.360300
      4 C29        -13.2830   -42.0960   -11.4740 ca         1 U3A      -0.208000
      5 F27        -15.0570   -35.2960   -14.9890 f          1 U3A      -0.104667
      6 F28        -13.8020   -34.9200   -13.2640 f          1 U3A      -0.104667
      7 C01        -11.0600   -37.6500   -12.4970 c3         1 U3A       0.152900
      8 C03        -12.5010   -39.4640   -11.6480 ca         1 U3A       0.588300
      9 C04        -11.7780   -40.4490   -12.3570 ca         1 U3A      -0.259000
     10 C05        -12.1730   -41.7950   -12.2730 ca         1 U3A      -0.010300
     11 C06        -11.4440   -42.8840   -13.0540 c3         1 U3A      -0.062100
     12 C07        -12.2400   -43.3680   -14.2840 c3         1 U3A       0.103000
     13 C09        -14.0690   -41.9820   -15.3430 c          1 U3A       0.628300
     14 C14        -15.8990   -38.8000   -16.6930 c          1 U3A       0.675700
     15 C17        -13.6870   -38.1880   -16.1390 cc         1 U3A       0.712800
     16 C19        -12.6360   -37.1700   -15.9940 ca         1 U3A      -0.107900
     17 C20        -11.4410   -37.3400   -16.7320 ca         1 U3A      -0.098000
     18 C21        -10.4030   -36.4010   -16.6520 ca         1 U3A      -0.087000
     19 C22        -10.5440   -35.2730   -15.8370 ca         1 U3A      -0.100000
     20 C23        -11.7200   -35.0850   -15.0940 ca         1 U3A      -0.064000
     21 C24        -12.7770   -36.0260   -15.1470 ca         1 U3A      -0.152300
     22 C30        -13.9440   -41.0590   -10.7990 ca         1 U3A       0.386900
     23 F26        -14.4640   -36.9320   -13.6780 f          1 U3A      -0.104667
     24 N08        -12.7380   -42.2310   -15.0680 ns         1 U3A      -0.512900
     25 N16        -14.8850   -37.8850   -16.5660 nd         1 U3A      -0.685100
     26 N18        -13.3460   -39.5260   -15.9420 na         1 U3A      -0.717200
     27 N31        -13.5640   -39.7670   -10.8810 nb         1 U3A      -0.692000
     28 O10        -14.9170   -42.8460   -15.1590 o          1 U3A      -0.554100
     29 O13        -16.6690   -41.0190   -16.3390 oh         1 U3A      -0.491100
     30 O15        -16.9950   -38.4490   -17.1100 o          1 U3A      -0.551100
     31 H1         -13.6410   -43.1170   -11.3760 ha         1 U3A       0.129000
     32 H2         -10.9810   -36.5590   -12.4150 h1         1 U3A       0.041033
     33 H3         -10.1120   -38.0860   -12.1560 h1         1 U3A       0.041033
     34 H4         -11.2010   -37.8990   -13.5560 h1         1 U3A       0.041033
     35 H5         -10.9240   -40.1840   -12.9700 ha         1 U3A       0.118000
     36 H6         -11.2350   -43.7420   -12.4050 hc         1 U3A       0.063700
     37 H7         -10.4680   -42.5150   -13.3910 hc         1 U3A       0.063700
     38 H8         -13.0820   -43.9830   -13.9410 h1         1 U3A       0.066200
     39 H9         -11.6010   -43.9950   -14.9200 h1         1 U3A       0.066200
     40 H10        -11.3210   -38.1990   -17.3900 ha         1 U3A       0.130000
     41 H11         -9.4920   -36.5450   -17.2310 ha         1 U3A       0.128000
     42 H12         -9.7420   -34.5400   -15.7790 ha         1 U3A       0.129000
     43 H13        -11.7970   -34.1970   -14.4690 ha         1 U3A       0.142000
     44 H14        -14.8100   -41.2710   -10.1730 h4         1 U3A       0.027100
     45 H15        -12.0810   -41.5050   -15.3040 hn         1 U3A       0.323500
     46 H16        -12.3680   -39.6850   -15.7330 hn         1 U3A       0.514000
     47 H17        -17.4260   -40.4850   -16.6780 ho         1 U3A       0.499000
     48 O02        -12.1600   -38.1310   -11.7050 os         1 U3A      -0.439300
@<TRIPOS>BOND
     1     1     2 2   
     2     1    13 1   
     3     1    26 1   
     4     2    14 1   
     5     2    29 1   
     6     3     5 1   
     7     3     6 1   
     8     3    21 1   
     9     3    23 1   
    10     4    10 ar  
    11     4    22 ar  
    12     4    31 1   
    13     7    32 1   
    14     7    33 1   
    15     7    34 1   
    16     7    48 1   
    17     8     9 ar  
    18     8    27 ar  
    19     8    48 1   
    20     9    10 ar  
    21     9    35 1   
    22    10    11 1   
    23    11    12 1   
    24    11    36 1   
    25    11    37 1   
    26    12    24 1   
    27    12    38 1   
    28    12    39 1   
    29    13    24 1   
    30    13    28 2   
    31    14    25 1   
    32    14    30 2   
    33    15    16 1   
    34    15    25 2   
    35    15    26 1   
    36    16    17 ar  
    37    16    21 ar  
    38    17    18 ar  
    39    17    40 1   
    40    18    19 ar  
    41    18    41 1   
    42    19    20 ar  
    43    19    42 1   
    44    20    21 ar  
    45    20    43 1   
    46    22    27 ar  
    47    22    44 1   
    48    24    45 1   
    49    26    46 1   
    50    29    47 1   
@<TRIPOS>SUBSTRUCTURE
     1 U3A         1 TEMP              0 ****  ****    0 ROOT
