@<TRIPOS>MOLECULE
U3A
   48    50     1     0     0
SMALL
bcc


@<TRIPOS>ATOM
      1 C11        -14.2810   -40.5100   -16.3070 cc         1 U3A      -0.048200
      2 C12        -15.3540   -40.2450   -17.0860 cd         1 U3A       0.019900
      3 C25        -14.4210   -36.1240   -14.3510 c3         1 U3A       0.724200
      4 C29        -12.6180   -41.9050   -10.8420 ca         1 U3A      -0.291300
      5 F27        -15.3400   -35.4830   -15.0820 f          1 U3A      -0.225967
      6 F28        -14.3580   -35.4980   -13.1730 f          1 U3A      -0.225967
      7 C01        -10.4690   -37.9520   -12.9150 c3         1 U3A       0.129700
      8 C03        -11.6230   -39.4630   -11.4980 ca         1 U3A       0.653600
      9 C04        -11.4980   -40.5070   -12.4190 ca         1 U3A      -0.342300
     10 C05        -12.0050   -41.7540   -12.0840 ca         1 U3A      -0.010300
     11 C06        -11.9560   -42.8900   -13.0640 c3         1 U3A      -0.062100
     12 C07        -13.3080   -43.1000   -13.7500 c3         1 U3A       0.103000
     13 C09        -13.9310   -41.8770   -15.8000 c          1 U3A       0.695300
     14 C14        -15.6290   -38.8630   -17.4890 c          1 U3A       0.675700
     15 C17        -13.7350   -38.2100   -16.3570 cc         1 U3A       0.712800
     16 C19        -12.7670   -37.1560   -15.9610 ca         1 U3A      -0.107900
     17 C20        -11.5150   -37.1570   -16.5640 ca         1 U3A      -0.116000
     18 C21        -10.5910   -36.1640   -16.2710 ca         1 U3A      -0.105000
     19 C22        -10.9170   -35.1650   -15.3700 ca         1 U3A      -0.118000
     20 C23        -12.1590   -35.1650   -14.7510 ca         1 U3A      -0.082000
     21 C24        -13.0860   -36.1580   -15.0380 ca         1 U3A      -0.152300
     22 C30        -12.6910   -40.8040   -10.0100 ca         1 U3A       0.452200
     23 F26        -14.8960   -37.3530   -14.1090 f          1 U3A      -0.225967
     24 N08        -13.7360   -41.9230   -14.4730 ns         1 U3A      -0.579900
     25 N16        -14.7580   -37.8930   -17.0900 nd         1 U3A      -0.685100
     26 N18        -13.4690   -39.4550   -15.9550 na         1 U3A      -0.662000
     27 N31        -12.2090   -39.6070   -10.3230 nb         1 U3A      -0.692000
     28 O10        -13.8380   -42.8220   -16.5610 o          1 U3A      -0.554100
     29 O13        -16.2150   -41.1820   -17.4700 oh         1 U3A      -0.452100
     30 O15        -16.6260   -38.6270   -18.1620 o          1 U3A      -0.551100
     31 H1         -13.0280   -42.8570   -10.5280 ha         1 U3A       0.147000
     32 H2         -10.1780   -36.9060   -12.8720 h1         1 U3A       0.041033
     33 H3          -9.5690   -38.5650   -13.0100 h1         1 U3A       0.041033
     34 H4         -11.0960   -38.1050   -13.7960 h1         1 U3A       0.041033
     35 H5         -11.0150   -40.3690   -13.3780 ha         1 U3A       0.136000
     36 H6         -11.6950   -43.8160   -12.5480 hc         1 U3A       0.063700
     37 H7         -11.1900   -42.7080   -13.8200 hc         1 U3A       0.063700
     38 H8         -14.0660   -43.3560   -13.0070 h1         1 U3A       0.066200
     39 H9         -13.2410   -43.9320   -14.4470 h1         1 U3A       0.066200
     40 H10        -11.2650   -37.9340   -17.2750 ha         1 U3A       0.148000
     41 H11         -9.6230   -36.1730   -16.7530 ha         1 U3A       0.146000
     42 H12        -10.2050   -34.3850   -15.1380 ha         1 U3A       0.147000
     43 H13        -12.3890   -34.3860   -14.0370 ha         1 U3A       0.160000
     44 H14        -13.1610   -40.8870    -9.0360 h4         1 U3A       0.027100
     45 H15        -13.9660   -41.1080   -13.9240 hn         1 U3A       0.323500
     46 H16        -12.6440   -39.6300   -15.3940 hn         1 U3A       0.458800
     47 H17        -16.9160   -40.7380   -17.9760 ho         1 U3A       0.460000
     48 O02        -11.1680   -38.2240   -11.7150 os         1 U3A      -0.416100
@<TRIPOS>BOND
     1     1     2 2   
     2     1    13 1   
     3     1    26 1   
     4     2    14 1   
     5     2    29 1   
     6     3     5 1   
     7     3     6 1   
     8     3    21 1   
     9     3    23 1   
    10     4    10 ar  
    11     4    22 ar  
    12     4    31 1   
    13     7    32 1   
    14     7    33 1   
    15     7    34 1   
    16     7    48 1   
    17     8     9 ar  
    18     8    27 ar  
    19     8    48 1   
    20     9    10 ar  
    21     9    35 1   
    22    10    11 1   
    23    11    12 1   
    24    11    36 1   
    25    11    37 1   
    26    12    24 1   
    27    12    38 1   
    28    12    39 1   
    29    13    24 1   
    30    13    28 2   
    31    14    25 1   
    32    14    30 2   
    33    15    16 1   
    34    15    25 2   
    35    15    26 1   
    36    16    17 ar  
    37    16    21 ar  
    38    17    18 ar  
    39    17    40 1   
    40    18    19 ar  
    41    18    41 1   
    42    19    20 ar  
    43    19    42 1   
    44    20    21 ar  
    45    20    43 1   
    46    22    27 ar  
    47    22    44 1   
    48    24    45 1   
    49    26    46 1   
    50    29    47 1   
@<TRIPOS>SUBSTRUCTURE
     1 U3A         1 TEMP              0 ****  ****    0 ROOT
