@<TRIPOS>MOLECULE
U3B
   80    83     1     0     0
SMALL
abcg2


@<TRIPOS>ATOM
      1 C1         179.1340   121.2040   171.4280 c3         1 U3B      -0.083433
      2 C2         179.2500   119.8160   170.7860 c3         1 U3B      -0.047000
      3 C3         177.9740   119.0150   171.0720 c3         1 U3B      -0.083433
      4 C4         180.4560   119.0690   171.3710 c3         1 U3B      -0.083433
      5 C5         179.3840   119.9480   169.2600 c3         1 U3B       0.158800
      6 N1         180.5830   120.6630   168.8310 n7         1 U3B      -0.864400
      7 C6         180.6360   120.8860   167.3850 c3         1 U3B       0.212100
      8 C7         179.6080   121.9040   166.9450 ca         1 U3B      -0.179300
      9 C8         179.8290   123.2390   167.2600 ca         1 U3B      -0.046000
     10 C9         178.9120   124.2510   166.9760 ca         1 U3B       0.205000
     11 C10        177.7080   123.9010   166.3540 ca         1 U3B       0.012700
     12 C11        176.6330   124.9230   166.1090 c6         1 U3B      -0.041100
     13 C12        175.2480   124.3170   166.3040 c6         1 U3B       0.019500
     14 C13        174.1370   125.3130   166.0160 c6         1 U3B      -0.075400
     15 C14        172.7520   124.6600   166.0720 c6         1 U3B      -0.071700
     16 C15        171.6650   125.7680   166.0560 c6         1 U3B       0.111500
     17 C16        171.3360   126.2650   164.6490 c          1 U3B       0.598300
     18 O1         170.7820   127.3500   164.5030 o          1 U3B      -0.505100
     19 C17        171.6610   125.4310   163.5130 ce         1 U3B      -0.333400
     20 C18        172.2290   124.2090   163.6320 c2         1 U3B       0.162900
     21 C19        172.6300   123.5980   164.9750 c6         1 U3B       0.121200
     22 C20        173.9230   122.7780   164.7800 c          1 U3B       0.570300
     23 O2         173.7910   121.7700   164.0080 o          1 U3B      -0.685100
     24 C21        175.1200   123.1030   165.4250 ce         1 U3B      -0.406400
     25 C22        176.2340   122.2690   165.2710 cf         1 U3B       0.363900
     26 C23        177.4820   122.5610   165.9640 ca         1 U3B      -0.153800
     27 C24        178.4330   121.5590   166.2750 ca         1 U3B       0.194100
     28 O3         178.1380   120.2720   165.9630 oh         1 U3B      -0.515100
     29 O4         176.1810   121.2120   164.4920 oh         1 U3B      -0.508100
     30 O5         171.6160   122.6570   165.3460 oh         1 U3B      -0.645000
     31 O6         172.3990   123.4630   162.5400 oh         1 U3B      -0.533100
     32 C25        171.3140   125.9740   162.1490 c          1 U3B       0.646300
     33 O7         172.0890   126.7060   161.5390 o          1 U3B      -0.600100
     34 N2         170.1130   125.6090   161.6750 nt         1 U3B      -0.595000
     35 N3         170.4250   125.5680   166.8040 n3         1 U3B      -0.728600
     36 C26        170.6400   125.3610   168.2250 c3         1 U3B       0.165100
     37 C27        169.4340   124.6530   166.2560 c3         1 U3B       0.165100
     38 N4         179.1570   125.6040   167.3300 nh         1 U3B      -0.772400
     39 C28        179.4640   126.4760   166.1960 c3         1 U3B       0.167100
     40 C29        180.0790   125.8230   168.4350 c3         1 U3B       0.167100
     41 H1         179.0130   121.1160   172.5110 hc         1 U3B       0.035589
     42 H2         180.0220   121.8050   171.2290 hc         1 U3B       0.035589
     43 H3         178.2670   121.7400   171.0320 hc         1 U3B       0.035589
     44 H4         177.8220   118.9070   172.1490 hc         1 U3B       0.035589
     45 H5         177.0970   119.5160   170.6560 hc         1 U3B       0.035589
     46 H6         178.0320   118.0140   170.6370 hc         1 U3B       0.035589
     47 H7         180.3160   118.9030   172.4420 hc         1 U3B       0.035589
     48 H8         180.5830   118.0950   170.8920 hc         1 U3B       0.035589
     49 H9         181.3810   119.6350   171.2460 hc         1 U3B       0.035589
     50 H10        178.5160   120.5010   168.8910 h1         1 U3B       0.030200
     51 H11        179.3350   118.9420   168.8100 h1         1 U3B       0.030200
     52 H12        181.4060   120.1360   169.0980 hn         1 U3B       0.415000
     53 H14        180.5380   119.9450   166.8190 h1         1 U3B       0.034700
     54 H15        181.6290   121.2710   167.1450 h1         1 U3B       0.034700
     55 H16        180.7540   123.4840   167.7630 ha         1 U3B       0.127000
     56 H17        176.7080   125.3160   165.0880 hc         1 U3B       0.073200
     57 H18        176.7820   125.7620   166.7870 hc         1 U3B       0.073200
     58 H19        175.1610   124.0070   167.3540 hc         1 U3B       0.057700
     59 H20        174.2990   125.7710   165.0340 hc         1 U3B       0.059200
     60 H21        174.1800   126.1170   166.7520 hc         1 U3B       0.059200
     61 H22        172.6740   124.1200   167.0180 hc         1 U3B       0.077700
     62 H23        172.1350   126.6300   166.5380 h1         1 U3B       0.079700
     63 H26        178.8460   119.6890   166.2690 ho         1 U3B       0.470000
     64 H27        175.2470   121.1820   164.1130 ho         1 U3B       0.540000
     65 H28        171.7430   121.8580   164.8120 ho         1 U3B       0.465000
     66 H29        172.8690   122.6290   162.7810 ho         1 U3B       0.506000
     67 H30        169.8040   125.9430   160.7750 hn         1 U3B       0.314500
     68 H31        169.5000   125.0120   162.2070 hn         1 U3B       0.314500
     69 H33        169.6870   125.4640   168.7480 h1         1 U3B       0.034033
     70 H34        171.0470   124.3670   168.4700 h1         1 U3B       0.034033
     71 H35        171.3300   126.1150   168.6090 h1         1 U3B       0.034033
     72 H36        168.4880   124.8220   166.7740 h1         1 U3B       0.034033
     73 H37        169.2770   124.8550   165.1960 h1         1 U3B       0.034033
     74 H38        169.7060   123.5980   166.3640 h1         1 U3B       0.034033
     75 H39        179.4280   127.5170   166.5220 h1         1 U3B       0.037700
     76 H40        180.4670   126.2740   165.7900 h1         1 U3B       0.037700
     77 H41        178.7390   126.3400   165.3980 h1         1 U3B       0.037700
     78 H42        179.8060   125.1900   169.2790 h1         1 U3B       0.037700
     79 H43        181.1300   125.6240   168.1730 h1         1 U3B       0.037700
     80 H44        180.0070   126.8670   168.7440 h1         1 U3B       0.037700
@<TRIPOS>BOND
     1     1     2 1   
     2     1    41 1   
     3     1    42 1   
     4     1    43 1   
     5     2     3 1   
     6     2     4 1   
     7     2     5 1   
     8     3    44 1   
     9     3    45 1   
    10     3    46 1   
    11     4    47 1   
    12     4    48 1   
    13     4    49 1   
    14     5     6 1   
    15     5    50 1   
    16     5    51 1   
    17     6     7 1   
    18     6    52 1   
    19     7     8 1   
    20     7    53 1   
    21     7    54 1   
    22     8     9 ar  
    23     8    27 ar  
    24     9    10 ar  
    25     9    55 1   
    26    10    11 ar  
    27    10    38 1   
    28    11    12 1   
    29    11    26 ar  
    30    12    13 1   
    31    12    56 1   
    32    12    57 1   
    33    13    14 1   
    34    13    24 1   
    35    13    58 1   
    36    14    15 1   
    37    14    59 1   
    38    14    60 1   
    39    15    16 1   
    40    15    21 1   
    41    15    61 1   
    42    16    17 1   
    43    16    35 1   
    44    16    62 1   
    45    17    18 2   
    46    17    19 1   
    47    19    20 2   
    48    19    32 1   
    49    20    21 1   
    50    20    31 1   
    51    21    22 1   
    52    21    30 1   
    53    22    23 2   
    54    22    24 1   
    55    24    25 2   
    56    25    26 1   
    57    25    29 1   
    58    26    27 ar  
    59    27    28 1   
    60    28    63 1   
    61    29    64 1   
    62    30    65 1   
    63    31    66 1   
    64    32    33 2   
    65    32    34 1   
    66    34    67 1   
    67    34    68 1   
    68    35    36 1   
    69    35    37 1   
    70    36    69 1   
    71    36    70 1   
    72    36    71 1   
    73    37    72 1   
    74    37    73 1   
    75    37    74 1   
    76    38    39 1   
    77    38    40 1   
    78    39    75 1   
    79    39    76 1   
    80    39    77 1   
    81    40    78 1   
    82    40    79 1   
    83    40    80 1   
@<TRIPOS>SUBSTRUCTURE
     1 U3B         1 TEMP              0 ****  ****    0 ROOT
