@<TRIPOS>MOLECULE
U3B
   80    83     1     0     0
SMALL
No Charge or Current Charge


@<TRIPOS>ATOM
      1 C1         179.5550   121.1840   171.5950 c3         1 U3B      -0.083433
      2 C2         179.3530   119.7970   170.9240 c3         1 U3B      -0.047000
      3 C3         178.0120   119.1940   171.4210 c3         1 U3B      -0.083433
      4 C4         180.5100   118.8450   171.3360 c3         1 U3B      -0.083433
      5 C5         179.2800   119.9430   169.3730 c3         1 U3B       0.158800
      6 N1         180.5210   120.5080   168.7960 n7         1 U3B      -0.864400
      7 C6         180.5300   120.7320   167.3410 c3         1 U3B       0.212100
      8 C7         179.4710   121.7590   166.9400 ca         1 U3B      -0.179300
      9 C8         179.7220   123.1070   167.2440 ca         1 U3B      -0.046000
     10 C9         178.7960   124.1160   166.9350 ca         1 U3B       0.205000
     11 C10        177.5800   123.7590   166.2970 ca         1 U3B       0.012700
     12 C11        176.5000   124.8190   166.0000 c6         1 U3B      -0.041100
     13 C12        175.0760   124.2260   166.1080 c6         1 U3B       0.019500
     14 C13        173.9940   125.2780   165.7850 c6         1 U3B      -0.075400
     15 C14        172.5890   124.6250   165.7970 c6         1 U3B      -0.071700
     16 C15        171.4520   125.7120   165.8660 c6         1 U3B       0.111500
     17 C16        170.5780   125.8010   164.5640 c          1 U3B       0.598300
     18 O1         169.4450   126.2730   164.5980 o          1 U3B      -0.505100
     19 C17        171.2570   125.4540   163.2790 ce         1 U3B      -0.333400
     20 C18        172.1090   124.3940   163.2950 c2         1 U3B       0.162900
     21 C19        172.4400   123.6270   164.6040 c6         1 U3B       0.121200
     22 C20        173.7400   122.7510   164.4090 c          1 U3B       0.570300
     23 O2         173.7420   121.8690   163.5510 o          1 U3B      -0.685100
     24 C21        174.9710   122.9720   165.2370 ce         1 U3B      -0.406400
     25 C22        176.0520   122.1430   165.2090 cf         1 U3B       0.363900
     26 C23        177.3240   122.4100   165.9350 ca         1 U3B      -0.153800
     27 C24        178.2660   121.4060   166.2890 ca         1 U3B       0.194100
     28 O3         178.0030   120.0850   166.0580 oh         1 U3B      -0.515100
     29 O4         176.0410   121.0910   164.3840 oh         1 U3B      -0.508100
     30 O5         171.3280   122.7420   164.8920 oh         1 U3B      -0.645000
     31 O6         172.6920   123.8840   162.1870 oh         1 U3B      -0.533100
     32 C25        170.8550   126.2220   162.0530 c          1 U3B       0.646300
     33 O7         170.1340   127.2030   162.0720 o          1 U3B      -0.600100
     34 N2         171.3420   125.8300   160.8630 nt         1 U3B      -0.595000
     35 N3         170.6930   125.6820   167.1780 n3         1 U3B      -0.728600
     36 C26        171.5010   126.0520   168.3650 c3         1 U3B       0.165100
     37 C27        169.8640   124.4680   167.3890 c3         1 U3B       0.165100
     38 N4         179.1120   125.4600   167.2690 nh         1 U3B      -0.772400
     39 C28        179.3050   126.4760   166.2120 c3         1 U3B       0.167100
     40 C29        179.5540   125.8150   168.6340 c3         1 U3B       0.167100
     41 H1         179.5400   121.0960   172.6890 hc         1 U3B       0.035589
     42 H2         180.5150   121.6300   171.3100 hc         1 U3B       0.035589
     43 H3         178.7590   121.8790   171.3020 hc         1 U3B       0.035589
     44 H4         178.0140   119.0750   172.5110 hc         1 U3B       0.035589
     45 H5         177.1680   119.8420   171.1540 hc         1 U3B       0.035589
     46 H6         177.8360   118.2080   170.9740 hc         1 U3B       0.035589
     47 H7         180.5140   118.6820   172.4210 hc         1 U3B       0.035589
     48 H8         180.4060   117.8680   170.8490 hc         1 U3B       0.035589
     49 H9         181.4880   119.2590   171.0620 hc         1 U3B       0.035589
     50 H10        178.4240   120.5870   169.1280 h1         1 U3B       0.030200
     51 H11        179.0810   118.9560   168.9330 h1         1 U3B       0.030200
     52 H12        181.2950   119.8750   169.0290 hn         1 U3B       0.415000
     53 H14        180.3920   119.7850   166.8030 h1         1 U3B       0.034700
     54 H15        181.5130   121.1180   167.0380 h1         1 U3B       0.034700
     55 H16        180.6530   123.3750   167.7360 ha         1 U3B       0.127000
     56 H17        176.6630   125.2290   164.9940 hc         1 U3B       0.073200
     57 H18        176.5770   125.6620   166.6990 hc         1 U3B       0.073200
     58 H19        174.9310   123.9120   167.1530 hc         1 U3B       0.057700
     59 H20        174.1900   125.7510   164.8120 hc         1 U3B       0.059200
     60 H21        174.0470   126.0790   166.5370 hc         1 U3B       0.059200
     61 H22        172.5440   124.0200   166.7120 hc         1 U3B       0.077700
     62 H23        171.9600   126.6870   165.8220 h1         1 U3B       0.079700
     63 H26        178.7060   119.5530   166.4780 ho         1 U3B       0.470000
     64 H27        175.1620   121.1680   163.9270 ho         1 U3B       0.540000
     65 H28        171.3970   121.9800   164.2720 ho         1 U3B       0.465000
     66 H29        173.1160   123.0200   162.4360 ho         1 U3B       0.506000
     67 H30        171.0940   126.3380   160.0290 hn         1 U3B       0.314500
     68 H31        171.9570   125.0290   160.8280 hn         1 U3B       0.314500
     69 H33        170.8570   126.1740   169.2470 h1         1 U3B       0.034033
     70 H34        172.2500   125.2830   168.5960 h1         1 U3B       0.034033
     71 H35        172.0250   127.0020   168.1980 h1         1 U3B       0.034033
     72 H36        169.2130   124.5960   168.2640 h1         1 U3B       0.034033
     73 H37        169.2230   124.2730   166.5200 h1         1 U3B       0.034033
     74 H38        170.4890   123.5820   167.5600 h1         1 U3B       0.034033
     75 H39        178.5570   127.2750   166.3070 h1         1 U3B       0.037700
     76 H40        180.3080   126.9190   166.2810 h1         1 U3B       0.037700
     77 H41        179.2020   126.0250   165.2160 h1         1 U3B       0.037700
     78 H42        179.1490   125.1040   169.3680 h1         1 U3B       0.037700
     79 H43        180.6500   125.8010   168.7010 h1         1 U3B       0.037700
     80 H44        179.1970   126.8180   168.9050 h1         1 U3B       0.037700
@<TRIPOS>BOND
     1     1     2 1   
     2     1    41 1   
     3     1    42 1   
     4     1    43 1   
     5     2     3 1   
     6     2     4 1   
     7     2     5 1   
     8     3    44 1   
     9     3    45 1   
    10     3    46 1   
    11     4    47 1   
    12     4    48 1   
    13     4    49 1   
    14     5     6 1   
    15     5    50 1   
    16     5    51 1   
    17     6     7 1   
    18     6    52 1   
    19     7     8 1   
    20     7    53 1   
    21     7    54 1   
    22     8     9 ar  
    23     8    27 ar  
    24     9    10 ar  
    25     9    55 1   
    26    10    11 ar  
    27    10    38 1   
    28    11    12 1   
    29    11    26 ar  
    30    12    13 1   
    31    12    56 1   
    32    12    57 1   
    33    13    14 1   
    34    13    24 1   
    35    13    58 1   
    36    14    15 1   
    37    14    59 1   
    38    14    60 1   
    39    15    16 1   
    40    15    21 1   
    41    15    61 1   
    42    16    17 1   
    43    16    35 1   
    44    16    62 1   
    45    17    18 2   
    46    17    19 1   
    47    19    20 2   
    48    19    32 1   
    49    20    21 1   
    50    20    31 1   
    51    21    22 1   
    52    21    30 1   
    53    22    23 2   
    54    22    24 1   
    55    24    25 2   
    56    25    26 1   
    57    25    29 1   
    58    26    27 ar  
    59    27    28 1   
    60    28    63 1   
    61    29    64 1   
    62    30    65 1   
    63    31    66 1   
    64    32    33 2   
    65    32    34 1   
    66    34    67 1   
    67    34    68 1   
    68    35    36 1   
    69    35    37 1   
    70    36    69 1   
    71    36    70 1   
    72    36    71 1   
    73    37    72 1   
    74    37    73 1   
    75    37    74 1   
    76    38    39 1   
    77    38    40 1   
    78    39    75 1   
    79    39    76 1   
    80    39    77 1   
    81    40    78 1   
    82    40    79 1   
    83    40    80 1   
@<TRIPOS>SUBSTRUCTURE
     1 U3B         1 TEMP              0 ****  ****    0 ROOT
