@<TRIPOS>MOLECULE
U3C
   30    31     1     0     0
SMALL
No Charge or Current Charge


@<TRIPOS>ATOM
      1 N1          -4.8060    -7.0270     1.0640 n7         1 U3C      -0.901400
      2 C4          -6.0780   -10.2990     4.9390 ca         1 U3C      -0.187000
      3 C5          -5.9920    -9.9920     3.5670 ca         1 U3C       0.489900
      4 C6          -4.8780    -7.7230     3.6090 c          1 U3C       0.609100
      5 C7          -4.3430    -6.7530     2.4810 c5         1 U3C       0.086500
      6 C8          -2.7790    -6.8350     2.4230 c5         1 U3C      -0.084400
      7 C10         -3.6310    -6.7820     0.2050 c5         1 U3C       0.162800
      8 N           -5.4080    -8.8480     3.0210 ns         1 U3C      -0.310900
      9 O           -4.8630    -7.5090     4.8160 o          1 U3C      -0.599100
     10 C1          -7.0650   -11.9520     2.9740 ca         1 U3C       0.384300
     11 C2          -7.2000   -12.3350     4.3210 ca         1 U3C      -0.198000
     12 C3          -6.6970   -11.4970     5.3270 ca         1 U3C      -0.049000
     13 C9          -2.5100    -7.4510     1.0240 c5         1 U3C      -0.093400
     14 N2          -6.4720   -10.7980     2.6000 nb         1 U3C      -0.739000
     15 H1          -5.5880    -6.4090     0.7990 hn         1 U3C       0.428000
     16 H3          -5.6750    -9.6350     5.6950 ha         1 U3C       0.156000
     17 H4          -4.6410    -5.7390     2.7830 h1         1 U3C       0.070700
     18 H5          -2.3440    -7.4360     3.2300 hc         1 U3C       0.062200
     19 H6          -2.3390    -5.8340     2.5020 hc         1 U3C       0.062200
     20 H7          -3.7500    -7.2270    -0.7930 h1         1 U3C       0.044200
     21 H8          -3.4470    -5.7040     0.0840 h1         1 U3C       0.044200
     22 H9          -5.3730    -8.8410     2.0100 hn         1 U3C       0.197000
     23 H10         -8.5660   -12.4560     1.5000 hc         1 U3C       0.050700
     24 H11         -6.9080   -12.8400     1.0000 hc         1 U3C       0.050700
     25 H12         -7.7320   -13.8610     2.1850 hc         1 U3C       0.050700
     26 H13         -7.6880   -13.2710     4.5780 ha         1 U3C       0.122000
     27 H14         -6.7840   -11.7690     6.3780 ha         1 U3C       0.119000
     28 H15         -2.6160    -8.5420     1.0310 hc         1 U3C       0.058700
     29 H16         -1.5110    -7.2140     0.6420 hc         1 U3C       0.058700
     30 C           -7.5960   -12.8250     1.8530 c3         1 U3C      -0.142400
@<TRIPOS>BOND
     1     1     5 1   
     2     1     7 1   
     3     1    15 1   
     4     2     3 ar  
     5     2    12 ar  
     6     2    16 1   
     7     3     8 1   
     8     3    14 ar  
     9     4     5 1   
    10     4     8 1   
    11     4     9 2   
    12     5     6 1   
    13     5    17 1   
    14     6    13 1   
    15     6    18 1   
    16     6    19 1   
    17     7    13 1   
    18     7    20 1   
    19     7    21 1   
    20     8    22 1   
    21    10    11 ar  
    22    10    14 ar  
    23    10    30 1   
    24    11    12 ar  
    25    11    26 1   
    26    12    27 1   
    27    13    28 1   
    28    13    29 1   
    29    23    30 1   
    30    24    30 1   
    31    25    30 1   
@<TRIPOS>SUBSTRUCTURE
     1 U3C         1 TEMP              0 ****  ****    0 ROOT
