@<TRIPOS>MOLECULE
U3C
   30    31     1     0     0
SMALL
abcg2


@<TRIPOS>ATOM
      1 N1          -4.8100    -6.9460     1.1550 n7         1 U3C      -0.901400
      2 C4          -5.9790   -10.2990     4.8190 ca         1 U3C      -0.187000
      3 C5          -6.0120    -9.9930     3.4550 ca         1 U3C       0.489900
      4 C6          -4.8460    -7.7870     3.5160 c          1 U3C       0.609100
      5 C7          -4.3700    -6.7060     2.5380 c5         1 U3C       0.086500
      6 C8          -2.8250    -6.6670     2.4780 c5         1 U3C      -0.084400
      7 C10         -3.6320    -7.0000     0.2650 c5         1 U3C       0.162800
      8 N           -5.4740    -8.8260     2.9150 ns         1 U3C      -0.310900
      9 O           -4.6420    -7.6770     4.7210 o          1 U3C      -0.599100
     10 C1          -7.1050   -11.9580     2.9340 ca         1 U3C       0.384300
     11 C2          -7.1150   -12.3450     4.2720 ca         1 U3C      -0.198000
     12 C3          -6.5440   -11.5000     5.2160 ca         1 U3C      -0.049000
     13 C9          -2.5070    -7.4390     1.1960 c5         1 U3C      -0.093400
     14 N2          -6.5600   -10.7990     2.5420 nb         1 U3C      -0.739000
     15 H1          -5.4840    -6.2560     0.8540 hn         1 U3C       0.428000
     16 H3          -5.5270    -9.6180     5.5200 ha         1 U3C       0.156000
     17 H4          -4.7640    -5.7670     2.9330 h1         1 U3C       0.070700
     18 H5          -2.3640    -7.0840     3.3720 hc         1 U3C       0.062200
     19 H6          -2.4970    -5.6300     2.3810 hc         1 U3C       0.062200
     20 H7          -3.8040    -7.6980    -0.5560 h1         1 U3C       0.044200
     21 H8          -3.4040    -6.0170    -0.1640 h1         1 U3C       0.044200
     22 H9          -5.5590    -8.7040     1.9070 hn         1 U3C       0.197000
     23 H10         -8.5220   -12.2870     1.3620 hc         1 U3C       0.050700
     24 H11         -6.9570   -13.0470     1.0980 hc         1 U3C       0.050700
     25 H12         -8.0910   -13.7490     2.2670 hc         1 U3C       0.050700
     26 H13         -7.5610   -13.2870     4.5620 ha         1 U3C       0.122000
     27 H14         -6.5380   -11.7760     6.2630 ha         1 U3C       0.119000
     28 H15         -2.5650    -8.5160     1.3740 hc         1 U3C       0.058700
     29 H16         -1.5200    -7.2110     0.7960 hc         1 U3C       0.058700
     30 C           -7.7050   -12.8160     1.8590 c3         1 U3C      -0.142400
@<TRIPOS>BOND
     1     1     5 1   
     2     1     7 1   
     3     1    15 1   
     4     2     3 ar  
     5     2    12 ar  
     6     2    16 1   
     7     3     8 1   
     8     3    14 ar  
     9     4     5 1   
    10     4     8 1   
    11     4     9 2   
    12     5     6 1   
    13     5    17 1   
    14     6    13 1   
    15     6    18 1   
    16     6    19 1   
    17     7    13 1   
    18     7    20 1   
    19     7    21 1   
    20     8    22 1   
    21    10    11 ar  
    22    10    14 ar  
    23    10    30 1   
    24    11    12 ar  
    25    11    26 1   
    26    12    27 1   
    27    13    28 1   
    28    13    29 1   
    29    23    30 1   
    30    24    30 1   
    31    25    30 1   
@<TRIPOS>SUBSTRUCTURE
     1 U3C         1 TEMP              0 ****  ****    0 ROOT
