@<TRIPOS>MOLECULE
U3D
  144   143     1     0     0
SMALL
bcc


@<TRIPOS>ATOM
      1 C11        158.3290   119.9800   168.3720 c3         1 U3D      -0.042200
      2 C12        157.7310   118.5700   168.3430 c3         1 U3D      -0.071400
      3 C13        156.5100   118.4450   167.4410 c3         1 U3D      -0.077400
      4 C14        156.0540   117.0030   167.2620 c3         1 U3D      -0.076400
      5 C15        154.6380   116.8670   166.7080 c3         1 U3D      -0.072400
      6 C16        154.4000   117.4750   165.3300 c3         1 U3D      -0.074400
      7 C17        155.1810   116.8050   164.2060 c3         1 U3D      -0.075400
      8 C18        154.6950   117.2420   162.8310 c3         1 U3D      -0.077400
      9 C19        155.4780   116.5870   161.7010 c3         1 U3D      -0.134400
     10 C20        154.8810   116.8490   160.3430 c          1 U3D       0.639100
     11 C23        155.3920   117.1160   158.0470 c3         1 U3D       0.108400
     12 C24        156.6430   117.3750   157.2280 c3         1 U3D       0.136100
     13 C25        157.4970   116.1390   157.0340 c3         1 U3D       0.217400
     14 C31        160.8900   117.0250   158.1030 c3         1 U3D       0.196400
     15 C32        161.7050   116.0340   158.9290 c3         1 U3D       0.068800
     16 C34        162.5290   115.2280   161.0540 c3         1 U3D       0.102433
     17 C35        162.0500   117.5890   160.8140 c3         1 U3D       0.102433
     18 C36        160.2300   115.9660   160.9020 c3         1 U3D       0.102433
     19 C40        157.9260   120.4870   158.7700 c3         1 U3D      -0.141400
     20 C41        158.3150   119.8090   160.0810 c3         1 U3D      -0.061400
     21 C42        158.7760   120.8260   161.1200 c3         1 U3D      -0.087400
     22 C43        159.3910   120.2030   162.3710 c3         1 U3D      -0.071400
     23 C44        158.5550   119.0950   163.0070 c3         1 U3D      -0.079400
     24 C45        158.9860   118.7420   164.4250 c3         1 U3D      -0.081400
     25 C46        160.4410   118.2770   164.5410 c3         1 U3D      -0.039200
     26 C47        160.7480   117.7720   165.9150 c2         1 U3D      -0.171200
     27 C48        161.0430   116.5160   166.2460 c2         1 U3D      -0.164200
     28 C01        152.9460   120.4850   158.8330 c3         1 U3D      -0.092100
     29 C02        154.1470   120.7730   159.7210 c3         1 U3D      -0.068400
     30 C03        153.7810   121.0150   161.1780 c3         1 U3D      -0.079400
     31 C04        155.0010   121.2990   162.0430 c3         1 U3D      -0.076400
     32 C05        154.6830   121.5070   163.5170 c3         1 U3D      -0.076400
     33 C06        155.9180   121.8490   164.3410 c3         1 U3D      -0.077400
     34 C07        155.6700   121.8580   165.8440 c3         1 U3D      -0.074400
     35 C08        156.9380   122.1900   166.6360 c3         1 U3D      -0.043200
     36 C10        157.3600   121.0230   168.8420 c2         1 U3D      -0.166200
     37 C49        161.1580   115.3600   165.2900 c3         1 U3D      -0.038200
     38 C50        159.8070   114.7980   164.8390 c3         1 U3D      -0.072400
     39 C51        158.9430   114.2570   165.9720 c3         1 U3D      -0.075400
     40 C52        157.6150   113.7060   165.4640 c3         1 U3D      -0.073400
     41 C53        156.6420   113.2760   166.5560 c3         1 U3D      -0.074400
     42 C54        157.1170   112.1100   167.4160 c3         1 U3D      -0.076400
     43 C55        156.0730   111.6690   168.4350 c3         1 U3D      -0.076400
     44 C56        156.5400   110.5110   169.3060 c3         1 U3D      -0.088100
     45 N33        161.6170   116.2210   160.4170 n4         1 U3D      -0.599800
     46 O21        153.7110   117.0460   160.1310 o          1 U3D      -0.529000
     47 O22        155.7990   116.8170   159.3810 os         1 U3D      -0.427900
     48 O26        158.5420   116.4670   156.1460 os         1 U3D      -0.575200
     49 O28        160.3410   115.5200   154.6400 o          1 U3D      -0.791500
     50 O29        159.8080   114.3880   156.9470 o          1 U3D      -0.791500
     51 O30        161.0000   116.6740   156.7440 os         1 U3D      -0.524200
     52 O37        157.4490   118.3460   157.9020 os         1 U3D      -0.423900
     53 O39        156.3590   120.0730   156.9980 o          1 U3D      -0.531000
     54 P27        159.9390   115.5960   156.0720 p5         1 U3D       1.380800
     55 H1         159.1980   119.9770   169.0370 hc         1 U3D       0.040200
     56 H2         158.7090   120.2210   167.3770 hc         1 U3D       0.040200
     57 H3         157.4650   118.2580   169.3580 hc         1 U3D       0.037200
     58 H4         158.5070   117.8750   168.0040 hc         1 U3D       0.037200
     59 H5         156.7350   118.8910   166.4670 hc         1 U3D       0.042200
     60 H6         155.6890   119.0370   167.8560 hc         1 U3D       0.042200
     61 H7         156.0880   116.4910   168.2300 hc         1 U3D       0.036200
     62 H8         156.7680   116.4710   166.6230 hc         1 U3D       0.036200
     63 H9         153.9460   117.3280   167.4200 hc         1 U3D       0.040200
     64 H10        154.3690   115.8060   166.6720 hc         1 U3D       0.040200
     65 H11        154.6230   118.5480   165.3400 hc         1 U3D       0.042200
     66 H12        153.3310   117.3980   165.1050 hc         1 U3D       0.042200
     67 H13        155.0780   115.7180   164.2920 hc         1 U3D       0.034700
     68 H14        156.2510   117.0170   164.3060 hc         1 U3D       0.034700
     69 H15        154.7670   118.3310   162.7430 hc         1 U3D       0.058200
     70 H16        153.6350   116.9940   162.7370 hc         1 U3D       0.058200
     71 H17        155.4910   115.4990   161.8410 hc         1 U3D       0.061700
     72 H18        156.5220   116.9050   161.7180 hc         1 U3D       0.061700
     73 H19        154.7450   117.9950   158.0320 h1         1 U3D       0.066200
     74 H20        154.8310   116.2820   157.6160 h1         1 U3D       0.066200
     75 H21        156.3250   117.7460   156.2490 h1         1 U3D       0.098700
     76 H22        156.8600   115.3540   156.6110 h1         1 U3D       0.032700
     77 H23        157.8670   115.7740   157.9950 h1         1 U3D       0.032700
     78 H24        159.8510   117.0640   158.4380 h1         1 U3D       0.036200
     79 H25        161.2910   118.0360   158.2050 h1         1 U3D       0.036200
     80 H26        162.7610   116.1120   158.6660 hx         1 U3D       0.114700
     81 H27        161.3660   115.0200   158.7220 hx         1 U3D       0.114700
     82 H28        163.5470   115.4130   160.7220 hx         1 U3D       0.092256
     83 H29        162.4690   115.3350   162.1350 hx         1 U3D       0.092256
     84 H30        162.2210   114.2260   160.7650 hx         1 U3D       0.092256
     85 H31        163.0470   117.7720   160.4220 hx         1 U3D       0.092256
     86 H32        161.3550   118.3250   160.4230 hx         1 U3D       0.092256
     87 H33        162.0610   117.6540   161.8990 hx         1 U3D       0.092256
     88 H34        159.9160   114.9780   160.5730 hx         1 U3D       0.092256
     89 H35        160.2260   116.0100   161.9880 hx         1 U3D       0.092256
     90 H36        159.5510   116.7190   160.5150 hx         1 U3D       0.092256
     91 H37        158.8250   120.8470   158.2580 hc         1 U3D       0.074700
     92 H38        157.3190   121.3740   158.9650 hc         1 U3D       0.074700
     93 H39        157.4640   119.2490   160.4790 hc         1 U3D       0.038200
     94 H40        159.1070   119.0770   159.9010 hc         1 U3D       0.038200
     95 H41        159.5060   121.5040   160.6680 hc         1 U3D       0.048200
     96 H42        157.9210   121.4470   161.4060 hc         1 U3D       0.048200
     97 H43        160.3830   119.8110   162.1260 hc         1 U3D       0.031200
     98 H44        159.5560   120.9950   163.1090 hc         1 U3D       0.031200
     99 H45        157.5010   119.3920   163.0260 hc         1 U3D       0.039200
    100 H46        158.5950   118.1940   162.3860 hc         1 U3D       0.039200
    101 H47        158.8350   119.6080   165.0780 hc         1 U3D       0.051700
    102 H48        158.3330   117.9530   164.8120 hc         1 U3D       0.051700
    103 H49        160.6360   117.5050   163.7920 hc         1 U3D       0.028700
    104 H50        161.1080   119.1120   164.3040 hc         1 U3D       0.028700
    105 H51        160.6850   118.5110   166.7110 ha         1 U3D       0.127000
    106 H52        161.2020   116.2960   167.2980 ha         1 U3D       0.128000
    107 H53        153.2480   120.3210   157.7980 hc         1 U3D       0.037700
    108 H54        152.4160   119.5920   159.1670 hc         1 U3D       0.037700
    109 H55        152.2370   121.3150   158.8440 hc         1 U3D       0.037700
    110 H56        154.8470   119.9340   159.6680 hc         1 U3D       0.030700
    111 H57        154.6900   121.6420   159.3360 hc         1 U3D       0.030700
    112 H58        153.0790   121.8530   161.2490 hc         1 U3D       0.041700
    113 H59        153.2530   120.1380   161.5700 hc         1 U3D       0.041700
    114 H60        155.7050   120.4640   161.9450 hc         1 U3D       0.030700
    115 H61        155.5250   122.1800   161.6530 hc         1 U3D       0.030700
    116 H62        153.9370   122.3010   163.6280 hc         1 U3D       0.040700
    117 H63        154.2190   120.5970   163.9130 hc         1 U3D       0.040700
    118 H64        156.7070   121.1200   164.1240 hc         1 U3D       0.033700
    119 H65        156.3130   122.8200   164.0240 hc         1 U3D       0.033700
    120 H66        154.8790   122.5730   166.0910 hc         1 U3D       0.042700
    121 H67        155.2980   120.8750   166.1480 hc         1 U3D       0.042700
    122 H68        157.7640   121.5930   166.2450 hc         1 U3D       0.040700
    123 H69        157.2040   123.2360   166.4490 hc         1 U3D       0.040700
    124 H70        156.0790   122.6380   168.6070 ha         1 U3D       0.119000
    125 H71        157.1030   120.9740   169.8970 ha         1 U3D       0.118000
    126 H72        161.7220   115.6620   164.4020 hc         1 U3D       0.033200
    127 H74        159.2530   115.5790   164.3070 hc         1 U3D       0.030200
    128 H75        159.9850   114.0020   164.1090 hc         1 U3D       0.030200
    129 H76        159.4970   113.4800   166.5080 hc         1 U3D       0.045700
    130 H77        158.7500   115.0500   166.7020 hc         1 U3D       0.045700
    131 H78        157.1320   114.4750   164.8510 hc         1 U3D       0.035700
    132 H79        157.8070   112.8630   164.7900 hc         1 U3D       0.035700
    133 H80        156.4270   114.1330   167.2030 hc         1 U3D       0.040200
    134 H81        155.6890   113.0050   166.0920 hc         1 U3D       0.040200
    135 H82        157.3750   111.2620   166.7710 hc         1 U3D       0.037200
    136 H83        158.0370   112.3820   167.9420 hc         1 U3D       0.037200
    137 H84        155.8070   112.5200   169.0690 hc         1 U3D       0.037200
    138 H85        155.1550   111.3860   167.9110 hc         1 U3D       0.037200
    139 H86        155.7780   110.2210   170.0300 hc         1 U3D       0.032367
    140 H87        156.7720   109.6320   168.7020 hc         1 U3D       0.032367
    141 H88        157.4420   110.7740   169.8610 hc         1 U3D       0.032367
    142 H73        161.7390   114.5610   165.7570 hc         1 U3D       0.033200
    143 C38        157.1540   119.6380   157.7940 c          1 U3D       0.649100
    144 C09        156.7750   121.9690   168.1070 c2         1 U3D      -0.164200
@<TRIPOS>BOND
     1     1     2 1   
     2     1    36 1   
     3     1    55 1   
     4     1    56 1   
     5     2     3 1   
     6     2    57 1   
     7     2    58 1   
     8     3     4 1   
     9     3    59 1   
    10     3    60 1   
    11     4     5 1   
    12     4    61 1   
    13     4    62 1   
    14     5     6 1   
    15     5    63 1   
    16     5    64 1   
    17     6     7 1   
    18     6    65 1   
    19     6    66 1   
    20     7     8 1   
    21     7    67 1   
    22     7    68 1   
    23     8     9 1   
    24     8    69 1   
    25     8    70 1   
    26     9    10 1   
    27     9    71 1   
    28     9    72 1   
    29    10    46 2   
    30    10    47 1   
    31    11    12 1   
    32    11    47 1   
    33    11    73 1   
    34    11    74 1   
    35    12    13 1   
    36    12    52 1   
    37    12    75 1   
    38    13    48 1   
    39    13    76 1   
    40    13    77 1   
    41    14    15 1   
    42    14    51 1   
    43    14    78 1   
    44    14    79 1   
    45    15    45 1   
    46    15    80 1   
    47    15    81 1   
    48    16    45 1   
    49    16    82 1   
    50    16    83 1   
    51    16    84 1   
    52    17    45 1   
    53    17    85 1   
    54    17    86 1   
    55    17    87 1   
    56    18    45 1   
    57    18    88 1   
    58    18    89 1   
    59    18    90 1   
    60    19    20 1   
    61    19    91 1   
    62    19    92 1   
    63    19   143 1   
    64    20    21 1   
    65    20    93 1   
    66    20    94 1   
    67    21    22 1   
    68    21    95 1   
    69    21    96 1   
    70    22    23 1   
    71    22    97 1   
    72    22    98 1   
    73    23    24 1   
    74    23    99 1   
    75    23   100 1   
    76    24    25 1   
    77    24   101 1   
    78    24   102 1   
    79    25    26 1   
    80    25   103 1   
    81    25   104 1   
    82    26    27 2   
    83    26   105 1   
    84    27    37 1   
    85    27   106 1   
    86    28    29 1   
    87    28   107 1   
    88    28   108 1   
    89    28   109 1   
    90    29    30 1   
    91    29   110 1   
    92    29   111 1   
    93    30    31 1   
    94    30   112 1   
    95    30   113 1   
    96    31    32 1   
    97    31   114 1   
    98    31   115 1   
    99    32    33 1   
   100    32   116 1   
   101    32   117 1   
   102    33    34 1   
   103    33   118 1   
   104    33   119 1   
   105    34    35 1   
   106    34   120 1   
   107    34   121 1   
   108    35   122 1   
   109    35   123 1   
   110    35   144 1   
   111    36   125 1   
   112    36   144 2   
   113    37    38 1   
   114    37   126 1   
   115    37   142 1   
   116    38    39 1   
   117    38   127 1   
   118    38   128 1   
   119    39    40 1   
   120    39   129 1   
   121    39   130 1   
   122    40    41 1   
   123    40   131 1   
   124    40   132 1   
   125    41    42 1   
   126    41   133 1   
   127    41   134 1   
   128    42    43 1   
   129    42   135 1   
   130    42   136 1   
   131    43    44 1   
   132    43   137 1   
   133    43   138 1   
   134    44   139 1   
   135    44   140 1   
   136    44   141 1   
   137    48    54 1   
   138    49    54 1   
   139    50    54 1   
   140    51    54 1   
   141    52   143 1   
   142    53   143 2   
   143   124   144 1   
@<TRIPOS>SUBSTRUCTURE
     1 U3D         1 TEMP              0 ****  ****    0 ROOT
