@<TRIPOS>MOLECULE
U3D
  144   143     1     0     0
SMALL
No Charge or Current Charge


@<TRIPOS>ATOM
      1 C11        158.5810   120.1540   168.3030 c3         1 U3D      -0.042200
      2 C12        157.9540   118.7500   168.1260 c3         1 U3D      -0.071400
      3 C13        156.6890   118.7350   167.2390 c3         1 U3D      -0.077400
      4 C14        156.1620   117.3120   166.9430 c3         1 U3D      -0.076400
      5 C15        154.8140   117.2900   166.1830 c3         1 U3D      -0.072400
      6 C16        154.8600   117.7570   164.7050 c3         1 U3D      -0.074400
      7 C17        155.4980   116.7370   163.7340 c3         1 U3D      -0.075400
      8 C18        155.3020   117.1180   162.2500 c3         1 U3D      -0.077400
      9 C19        155.8380   116.0510   161.2650 c3         1 U3D      -0.134400
     10 C20        155.2920   116.2820   159.8520 c          1 U3D       0.590100
     11 C23        155.8090   117.1370   157.6650 c3         1 U3D       0.131600
     12 C24        157.0210   117.6580   156.8380 c3         1 U3D       0.159300
     13 C25        158.0200   116.5150   156.5210 c3         1 U3D       0.240600
     14 C31        160.7720   117.5660   158.3490 c3         1 U3D       0.219600
     15 C32        161.4310   116.3100   158.9660 c3         1 U3D       0.040600
     16 C34        162.0210   114.7950   160.8620 c3         1 U3D       0.074233
     17 C35        162.0840   117.2650   161.2080 c3         1 U3D       0.074233
     18 C36        159.8800   116.0770   160.9480 c3         1 U3D       0.074233
     19 C40        157.9630   120.7260   158.7980 c3         1 U3D      -0.141400
     20 C41        158.1310   120.0320   160.1720 c3         1 U3D      -0.061400
     21 C42        158.6930   120.9710   161.2620 c3         1 U3D      -0.087400
     22 C43        159.3640   120.2460   162.4520 c3         1 U3D      -0.071400
     23 C44        158.5050   119.1500   163.1240 c3         1 U3D      -0.079400
     24 C45        159.0850   118.6360   164.4600 c3         1 U3D      -0.081400
     25 C46        160.4710   117.9750   164.3480 c3         1 U3D      -0.039200
     26 C47        160.8980   117.3330   165.6530 c2         1 U3D      -0.221200
     27 C48        161.0400   116.0180   165.8960 c2         1 U3D      -0.214200
     28 C01        152.6320   119.3580   159.5320 c3         1 U3D      -0.092100
     29 C02        153.8190   120.0950   160.1780 c3         1 U3D      -0.068400
     30 C03        153.5440   120.5340   161.6320 c3         1 U3D      -0.079400
     31 C04        154.7590   121.2200   162.2910 c3         1 U3D      -0.076400
     32 C05        154.5260   121.5810   163.7750 c3         1 U3D      -0.076400
     33 C06        155.8040   122.0930   164.4760 c3         1 U3D      -0.077400
     34 C07        155.6760   122.1530   166.0130 c3         1 U3D      -0.074400
     35 C08        157.0130   122.4700   166.7190 c3         1 U3D      -0.043200
     36 C10        157.6150   121.1860   168.8700 c2         1 U3D      -0.216200
     37 C49        160.8220   114.8810   164.9130 c3         1 U3D      -0.038200
     38 C50        159.3320   114.5320   164.7010 c3         1 U3D      -0.072400
     39 C51        158.6060   114.0940   165.9940 c3         1 U3D      -0.075400
     40 C52        157.1380   113.6760   165.7480 c3         1 U3D      -0.073400
     41 C53        156.3320   113.3790   167.0350 c3         1 U3D      -0.074400
     42 C54        156.8290   112.1520   167.8340 c3         1 U3D      -0.076400
     43 C55        155.9530   111.8430   169.0670 c3         1 U3D      -0.076400
     44 C56        156.4480   110.6230   169.8680 c3         1 U3D      -0.088100
     45 N33        161.3470   116.1230   160.4950 n4         1 U3D      -0.487000
     46 O21        154.1530   115.9880   159.5170 o          1 U3D      -0.480000
     47 O22        156.2360   116.7970   159.0040 os         1 U3D      -0.451100
     48 O26        159.0380   117.0070   155.6340 os         1 U3D      -0.598400
     49 O28        161.3290   116.7690   154.5680 o          1 U3D      -0.791500
     50 O29        160.6860   115.1530   156.3100 o          1 U3D      -0.791500
     51 O30        161.0410   117.6490   156.9390 os         1 U3D      -0.547400
     52 O37        157.7260   118.6920   157.5720 os         1 U3D      -0.447100
     53 O39        155.9590   120.1590   157.5550 o          1 U3D      -0.482000
     54 P27        160.5730   116.5620   155.8370 p5         1 U3D       1.380800
     55 H1         159.4460   120.0650   168.9710 hc         1 U3D       0.040200
     56 H2         158.9940   120.4770   167.3430 hc         1 U3D       0.040200
     57 H3         157.7050   118.3420   169.1130 hc         1 U3D       0.037200
     58 H4         158.7080   118.0830   167.6900 hc         1 U3D       0.037200
     59 H5         156.9030   119.2510   166.2970 hc         1 U3D       0.042200
     60 H6         155.8990   119.3050   167.7420 hc         1 U3D       0.042200
     61 H7         156.0240   116.7880   167.8970 hc         1 U3D       0.036200
     62 H8         156.9140   116.7450   166.3830 hc         1 U3D       0.036200
     63 H9         154.0990   117.9210   166.7260 hc         1 U3D       0.040200
     64 H10        154.4050   116.2730   166.2190 hc         1 U3D       0.040200
     65 H11        155.3880   118.7130   164.6270 hc         1 U3D       0.042200
     66 H12        153.8290   117.9460   164.3820 hc         1 U3D       0.042200
     67 H13        155.0420   115.7540   163.9050 hc         1 U3D       0.034700
     68 H14        156.5680   116.6390   163.9470 hc         1 U3D       0.034700
     69 H15        155.7850   118.0810   162.0450 hc         1 U3D       0.058200
     70 H16        154.2290   117.2590   162.0680 hc         1 U3D       0.058200
     71 H17        155.5090   115.0610   161.6010 hc         1 U3D       0.061700
     72 H18        156.9320   116.1050   161.2590 hc         1 U3D       0.061700
     73 H19        155.0160   117.8940   157.6930 h1         1 U3D       0.066200
     74 H20        155.3920   116.2560   157.1590 h1         1 U3D       0.066200
     75 H21        156.6460   118.0490   155.8820 h1         1 U3D       0.098700
     76 H22        157.4790   115.6910   156.0390 h1         1 U3D       0.032700
     77 H23        158.4410   116.1260   157.4580 h1         1 U3D       0.032700
     78 H24        159.6960   117.5350   158.5440 h1         1 U3D       0.036200
     79 H25        161.1680   118.4590   158.8490 h1         1 U3D       0.036200
     80 H26        162.4880   116.3160   158.6930 hx         1 U3D       0.114700
     81 H27        160.9780   115.4260   158.5150 hx         1 U3D       0.114700
     82 H28        163.0640   114.8210   160.5420 hx         1 U3D       0.092256
     83 H29        161.9720   114.6510   161.9420 hx         1 U3D       0.092256
     84 H30        161.5020   113.9770   160.3580 hx         1 U3D       0.092256
     85 H31        163.1090   117.3180   160.8350 hx         1 U3D       0.092256
     86 H32        161.5710   118.2090   161.0100 hx         1 U3D       0.092256
     87 H33        162.0970   117.0710   162.2810 hx         1 U3D       0.092256
     88 H34        159.3630   115.2800   160.4090 hx         1 U3D       0.092256
     89 H35        159.8410   115.8770   162.0210 hx         1 U3D       0.092256
     90 H36        159.4040   117.0350   160.7350 hx         1 U3D       0.092256
     91 H37        158.9730   120.8080   158.3810 hc         1 U3D       0.074700
     92 H38        157.5060   121.7150   158.9230 hc         1 U3D       0.074700
     93 H39        157.1640   119.6360   160.5050 hc         1 U3D       0.038200
     94 H40        158.7990   119.1710   160.0520 hc         1 U3D       0.038200
     95 H41        159.4380   121.6410   160.8140 hc         1 U3D       0.048200
     96 H42        157.8840   121.6130   161.6340 hc         1 U3D       0.048200
     97 H43        160.3030   119.8010   162.1020 hc         1 U3D       0.031200
     98 H44        159.6360   120.9990   163.2020 hc         1 U3D       0.031200
     99 H45        157.5000   119.5390   163.3130 hc         1 U3D       0.039200
    100 H46        158.3840   118.3030   162.4380 hc         1 U3D       0.039200
    101 H47        159.1370   119.4670   165.1730 hc         1 U3D       0.051700
    102 H48        158.3870   117.9040   164.8790 hc         1 U3D       0.051700
    103 H49        160.4310   117.2340   163.5460 hc         1 U3D       0.028700
    104 H50        161.2150   118.7220   164.0480 hc         1 U3D       0.028700
    105 H51        161.0930   118.0520   166.4520 ha         1 U3D       0.177000
    106 H52        161.3500   115.6860   166.8890 ha         1 U3D       0.178000
    107 H53        152.8750   119.0710   158.5020 hc         1 U3D       0.037700
    108 H54        152.3900   118.4470   160.0930 hc         1 U3D       0.037700
    109 H55        151.7430   119.9990   159.5090 hc         1 U3D       0.037700
    110 H56        154.6960   119.4370   160.1550 hc         1 U3D       0.030700
    111 H57        154.0650   120.9770   159.5740 hc         1 U3D       0.030700
    112 H58        152.6870   121.2200   161.6500 hc         1 U3D       0.041700
    113 H59        153.2630   119.6550   162.2240 hc         1 U3D       0.041700
    114 H60        155.6180   120.5440   162.2220 hc         1 U3D       0.030700
    115 H61        155.0200   122.1260   161.7310 hc         1 U3D       0.030700
    116 H62        153.7370   122.3400   163.8510 hc         1 U3D       0.040700
    117 H63        154.1580   120.6920   164.3010 hc         1 U3D       0.040700
    118 H64        156.6370   121.4280   164.2250 hc         1 U3D       0.033700
    119 H65        156.0640   123.0860   164.0870 hc         1 U3D       0.033700
    120 H66        154.9240   122.9000   166.2960 hc         1 U3D       0.042700
    121 H67        155.3080   121.1850   166.3710 hc         1 U3D       0.042700
    122 H68        157.8100   121.9040   166.2280 hc         1 U3D       0.040700
    123 H69        157.2590   123.5280   166.5630 hc         1 U3D       0.040700
    124 H70        156.3030   122.8320   168.7630 ha         1 U3D       0.169000
    125 H71        157.4690   121.0890   169.9480 ha         1 U3D       0.168000
    126 H72        161.2660   115.1320   163.9430 hc         1 U3D       0.033200
    127 H74        158.8150   115.3990   164.2720 hc         1 U3D       0.030200
    128 H75        159.2630   113.7260   163.9600 hc         1 U3D       0.030200
    129 H76        159.1550   113.2580   166.4420 hc         1 U3D       0.045700
    130 H77        158.6270   114.9180   166.7180 hc         1 U3D       0.045700
    131 H78        156.6290   114.4800   165.2070 hc         1 U3D       0.035700
    132 H79        157.1140   112.7960   165.0940 hc         1 U3D       0.035700
    133 H80        156.3470   114.2640   167.6820 hc         1 U3D       0.040200
    134 H81        155.2830   113.2170   166.7540 hc         1 U3D       0.040200
    135 H82        156.8480   111.2760   167.1740 hc         1 U3D       0.037200
    136 H83        157.8590   112.3250   168.1680 hc         1 U3D       0.037200
    137 H84        155.9320   112.7180   169.7270 hc         1 U3D       0.037200
    138 H85        154.9210   111.6610   168.7430 hc         1 U3D       0.037200
    139 H86        155.7970   110.4420   170.7310 hc         1 U3D       0.032367
    140 H87        156.4480   109.7220   169.2430 hc         1 U3D       0.032367
    141 H88        157.4680   110.7890   170.2370 hc         1 U3D       0.032367
    142 H73        161.3540   113.9860   165.2590 hc         1 U3D       0.033200
    143 C38        157.1170   119.8900   157.8370 c          1 U3D       0.600100
    144 C09        156.9630   122.1620   168.2070 c2         1 U3D      -0.214200
@<TRIPOS>BOND
     1     1     2 1   
     2     1    36 1   
     3     1    55 1   
     4     1    56 1   
     5     2     3 1   
     6     2    57 1   
     7     2    58 1   
     8     3     4 1   
     9     3    59 1   
    10     3    60 1   
    11     4     5 1   
    12     4    61 1   
    13     4    62 1   
    14     5     6 1   
    15     5    63 1   
    16     5    64 1   
    17     6     7 1   
    18     6    65 1   
    19     6    66 1   
    20     7     8 1   
    21     7    67 1   
    22     7    68 1   
    23     8     9 1   
    24     8    69 1   
    25     8    70 1   
    26     9    10 1   
    27     9    71 1   
    28     9    72 1   
    29    10    46 2   
    30    10    47 1   
    31    11    12 1   
    32    11    47 1   
    33    11    73 1   
    34    11    74 1   
    35    12    13 1   
    36    12    52 1   
    37    12    75 1   
    38    13    48 1   
    39    13    76 1   
    40    13    77 1   
    41    14    15 1   
    42    14    51 1   
    43    14    78 1   
    44    14    79 1   
    45    15    45 1   
    46    15    80 1   
    47    15    81 1   
    48    16    45 1   
    49    16    82 1   
    50    16    83 1   
    51    16    84 1   
    52    17    45 1   
    53    17    85 1   
    54    17    86 1   
    55    17    87 1   
    56    18    45 1   
    57    18    88 1   
    58    18    89 1   
    59    18    90 1   
    60    19    20 1   
    61    19    91 1   
    62    19    92 1   
    63    19   143 1   
    64    20    21 1   
    65    20    93 1   
    66    20    94 1   
    67    21    22 1   
    68    21    95 1   
    69    21    96 1   
    70    22    23 1   
    71    22    97 1   
    72    22    98 1   
    73    23    24 1   
    74    23    99 1   
    75    23   100 1   
    76    24    25 1   
    77    24   101 1   
    78    24   102 1   
    79    25    26 1   
    80    25   103 1   
    81    25   104 1   
    82    26    27 2   
    83    26   105 1   
    84    27    37 1   
    85    27   106 1   
    86    28    29 1   
    87    28   107 1   
    88    28   108 1   
    89    28   109 1   
    90    29    30 1   
    91    29   110 1   
    92    29   111 1   
    93    30    31 1   
    94    30   112 1   
    95    30   113 1   
    96    31    32 1   
    97    31   114 1   
    98    31   115 1   
    99    32    33 1   
   100    32   116 1   
   101    32   117 1   
   102    33    34 1   
   103    33   118 1   
   104    33   119 1   
   105    34    35 1   
   106    34   120 1   
   107    34   121 1   
   108    35   122 1   
   109    35   123 1   
   110    35   144 1   
   111    36   125 1   
   112    36   144 2   
   113    37    38 1   
   114    37   126 1   
   115    37   142 1   
   116    38    39 1   
   117    38   127 1   
   118    38   128 1   
   119    39    40 1   
   120    39   129 1   
   121    39   130 1   
   122    40    41 1   
   123    40   131 1   
   124    40   132 1   
   125    41    42 1   
   126    41   133 1   
   127    41   134 1   
   128    42    43 1   
   129    42   135 1   
   130    42   136 1   
   131    43    44 1   
   132    43   137 1   
   133    43   138 1   
   134    44   139 1   
   135    44   140 1   
   136    44   141 1   
   137    48    54 1   
   138    49    54 1   
   139    50    54 1   
   140    51    54 1   
   141    52   143 1   
   142    53   143 2   
   143   124   144 1   
@<TRIPOS>SUBSTRUCTURE
     1 U3D         1 TEMP              0 ****  ****    0 ROOT
