@<TRIPOS>MOLECULE
U3E
   45    48     1     0     0
SMALL
abcg2


@<TRIPOS>ATOM
      1 N1           7.5130    -3.8730    33.4300 nb         1 U3E      -0.645000
      2 N3           4.7570    -1.8940    34.8890 ns         1 U3E      -0.135000
      3 C4           5.3970    -1.6120    29.7020 ca         1 U3E      -0.096500
      4 C5           7.7950    -1.8010    29.6530 ca         1 U3E      -0.096500
      5 C6           2.7450    -2.0790    37.9060 ca         1 U3E      -0.145000
      6 C7           5.6740    -1.9470    32.6820 ca         1 U3E      -0.123000
      7 C8           3.1720    -0.1350    36.5610 ca         1 U3E      -0.163000
      8 C10          7.4820    -3.4100    32.1830 ca         1 U3E       0.319900
      9 C13          6.5800    -2.4320    31.7470 cp         1 U3E      -0.054000
     10 C15          5.6900    -2.4300    33.9900 ca         1 U3E      -0.074000
     11 C17          4.5220    -2.2500    36.1810 c          1 U3E       0.616700
     12 C20          1.4820     4.8920    34.9960 cx         1 U3E      -0.090400
     13 C21          1.6520     4.0950    36.2740 cx         1 U3E      -0.254700
     14 C1           6.6100    -1.0100    27.7080 ca         1 U3E      -0.104000
     15 C2           5.4070    -1.1490    28.3930 ca         1 U3E      -0.110000
     16 C3           7.8040    -1.3370    28.3430 ca         1 U3E      -0.110000
     17 C9           1.7710    -1.3450    38.5620 ca         1 U3E       0.366900
     18 C11          6.6430    -3.3990    34.3250 ca         1 U3E       0.321900
     19 C12          6.5910    -1.9440    30.3520 cp         1 U3E      -0.037000
     20 C14          3.4520    -1.4580    36.8780 ca         1 U3E      -0.089600
     21 C16          2.1760     0.5200    37.2930 ca         1 U3E       0.476900
     22 C18          2.2870     2.7560    36.1760 c          1 U3E       0.649100
     23 C19          2.5160     5.3060    35.9820 cx         1 U3E      -0.090400
     24 N2           1.4870    -0.0750    38.2710 nb         1 U3E      -0.719000
     25 N4           1.8080     1.8490    37.0860 ns         1 U3E      -0.320900
     26 O1           5.1120    -3.1520    36.7630 o          1 U3E      -0.572100
     27 O2           3.1590     2.4920    35.3550 o          1 U3E      -0.593100
     28 H17          4.1510    -1.1870    34.4980 hn         1 U3E       0.161000
     29 H4           4.4530    -1.7340    30.2180 ha         1 U3E       0.114500
     30 H5           8.7310    -2.0320    30.1430 ha         1 U3E       0.114500
     31 H6           2.9490    -3.1040    38.1780 ha         1 U3E       0.149000
     32 H7           4.9620    -1.1780    32.4060 ha         1 U3E       0.120000
     33 H8           3.7070     0.4070    35.8000 ha         1 U3E       0.159000
     34 H10          8.1940    -3.8420    31.4900 h4         1 U3E       0.024100
     35 H15          1.8190     4.4120    34.0880 hc         1 U3E       0.085200
     36 H16          0.8870     4.2110    37.0290 hc         1 U3E       0.091700
     37 H1           6.6170    -0.6490    26.6870 ha         1 U3E       0.114000
     38 H2           4.4720    -0.9030    27.9040 ha         1 U3E       0.114500
     39 H3           8.7460    -1.2260    27.8210 ha         1 U3E       0.114500
     40 H9           1.1900    -1.7930    39.3600 h4         1 U3E       0.028100
     41 H11          6.6970    -3.7920    35.3260 h4         1 U3E       0.055100
     42 H12          3.5520     5.1080    35.7410 hc         1 U3E       0.085200
     43 H13          2.3360     6.1820    36.5900 hc         1 U3E       0.085200
     44 H18          1.0830     2.1640    37.7160 hn         1 U3E       0.171000
     45 H14          0.5780     5.4770    34.9110 hc         1 U3E       0.085200
@<TRIPOS>BOND
     1     1     8 ar  
     2     1    18 ar  
     3     2    10 1   
     4     2    11 1   
     5     2    28 1   
     6     3    15 ar  
     7     3    19 ar  
     8     3    29 1   
     9     4    16 ar  
    10     4    19 ar  
    11     4    30 1   
    12     5    17 ar  
    13     5    20 ar  
    14     5    31 1   
    15     6     9 ar  
    16     6    10 ar  
    17     6    32 1   
    18     7    20 ar  
    19     7    21 ar  
    20     7    33 1   
    21     8     9 ar  
    22     8    34 1   
    23     9    19 1   
    24    10    18 ar  
    25    11    20 1   
    26    11    26 2   
    27    12    13 1   
    28    12    23 1   
    29    12    35 1   
    30    12    45 1   
    31    13    22 1   
    32    13    23 1   
    33    13    36 1   
    34    14    15 ar  
    35    14    16 ar  
    36    14    37 1   
    37    15    38 1   
    38    16    39 1   
    39    17    24 ar  
    40    17    40 1   
    41    18    41 1   
    42    21    24 ar  
    43    21    25 1   
    44    22    25 1   
    45    22    27 2   
    46    23    42 1   
    47    23    43 1   
    48    25    44 1   
@<TRIPOS>SUBSTRUCTURE
     1 U3E         1 TEMP              0 ****  ****    0 ROOT
