@<TRIPOS>MOLECULE
U3E
   45    48     1     0     0
SMALL
No Charge or Current Charge


@<TRIPOS>ATOM
      1 N1           7.0160    -4.4560    33.1420 nb         1 U3E      -0.645000
      2 N3           4.8380    -1.9960    34.9550 ns         1 U3E      -0.135000
      3 C4           5.5760    -1.1520    29.7630 ca         1 U3E      -0.096500
      4 C5           7.8150    -2.0710    29.5540 ca         1 U3E      -0.096500
      5 C6           3.2840    -1.6760    38.3700 ca         1 U3E      -0.145000
      6 C7           5.7220    -1.9890    32.6950 ca         1 U3E      -0.123000
      7 C8           3.1820    -0.1690    36.4950 ca         1 U3E      -0.163000
      8 C10          7.1110    -3.8220    31.9500 ca         1 U3E       0.319900
      9 C13          6.4850    -2.5810    31.6580 cp         1 U3E      -0.054000
     10 C15          5.6130    -2.6330    33.9420 ca         1 U3E      -0.074000
     11 C17          4.5320    -2.3620    36.2620 c          1 U3E       0.616700
     12 C20          1.7470     4.9880    34.9270 cx         1 U3E      -0.090400
     13 C21          1.0890     3.8490    35.6820 cx         1 U3E      -0.254700
     14 C1           6.8940    -0.6960    27.7690 ca         1 U3E      -0.104000
     15 C2           5.7080    -0.5430    28.5030 ca         1 U3E      -0.110000
     16 C3           7.9480    -1.4600    28.2950 ca         1 U3E      -0.110000
     17 C9           2.4810    -0.7720    39.0840 ca         1 U3E       0.366900
     18 C11          6.2810    -3.8700    34.1160 ca         1 U3E       0.321900
     19 C12          6.6260    -1.9290    30.3160 cp         1 U3E      -0.037000
     20 C14          3.6590    -1.3890    37.0380 ca         1 U3E      -0.089600
     21 C16          2.3750     0.6720    37.2890 ca         1 U3E       0.476900
     22 C18          1.7360     2.4850    35.6550 c          1 U3E       0.649100
     23 C19          1.7770     4.9700    36.4370 cx         1 U3E      -0.090400
     24 N2           2.0310     0.3880    38.5570 nb         1 U3E      -0.719000
     25 N4           1.8370     1.9000    36.8930 ns         1 U3E      -0.320900
     26 O1           4.9330    -3.4020    36.7740 o          1 U3E      -0.572100
     27 O2           2.1090     1.9640    34.6140 o          1 U3E      -0.593100
     28 H17          4.4360    -1.1150    34.6670 hn         1 U3E       0.161000
     29 H4           4.6420    -1.0320    30.3070 ha         1 U3E       0.114500
     30 H5           8.6490    -2.6470    29.9460 ha         1 U3E       0.114500
     31 H6           3.6080    -2.5910    38.8600 ha         1 U3E       0.149000
     32 H7           5.2320    -1.0310    32.5360 ha         1 U3E       0.120000
     33 H8           3.4380     0.1300    35.4860 ha         1 U3E       0.159000
     34 H10          7.7010    -4.3340    31.1920 h4         1 U3E       0.024100
     35 H15          2.6780     4.7900    34.4010 hc         1 U3E       0.085200
     36 H16          0.0020     3.8360    35.7000 hc         1 U3E       0.091700
     37 H1           6.9970    -0.2240    26.7940 ha         1 U3E       0.114000
     38 H2           4.8890     0.0460    28.0960 ha         1 U3E       0.114500
     39 H3           8.8690    -1.5780    27.7280 ha         1 U3E       0.114500
     40 H9           2.1900    -0.9840    40.1120 h4         1 U3E       0.028100
     41 H11          6.2410    -4.4210    35.0520 h4         1 U3E       0.055100
     42 H12          2.7310     4.7640    36.9190 hc         1 U3E       0.085200
     43 H13          1.1510     5.6870    36.9640 hc         1 U3E       0.085200
     44 H18          1.4500     2.4390    37.6540 hn         1 U3E       0.171000
     45 H14          1.1010     5.7170    34.4420 hc         1 U3E       0.085200
@<TRIPOS>BOND
     1     1     8 ar  
     2     1    18 ar  
     3     2    10 1   
     4     2    11 1   
     5     2    28 1   
     6     3    15 ar  
     7     3    19 ar  
     8     3    29 1   
     9     4    16 ar  
    10     4    19 ar  
    11     4    30 1   
    12     5    17 ar  
    13     5    20 ar  
    14     5    31 1   
    15     6     9 ar  
    16     6    10 ar  
    17     6    32 1   
    18     7    20 ar  
    19     7    21 ar  
    20     7    33 1   
    21     8     9 ar  
    22     8    34 1   
    23     9    19 1   
    24    10    18 ar  
    25    11    20 1   
    26    11    26 2   
    27    12    13 1   
    28    12    23 1   
    29    12    35 1   
    30    12    45 1   
    31    13    22 1   
    32    13    23 1   
    33    13    36 1   
    34    14    15 ar  
    35    14    16 ar  
    36    14    37 1   
    37    15    38 1   
    38    16    39 1   
    39    17    24 ar  
    40    17    40 1   
    41    18    41 1   
    42    21    24 ar  
    43    21    25 1   
    44    22    25 1   
    45    22    27 2   
    46    23    42 1   
    47    23    43 1   
    48    25    44 1   
@<TRIPOS>SUBSTRUCTURE
     1 U3E         1 TEMP              0 ****  ****    0 ROOT
