@<TRIPOS>MOLECULE
U3F
   67    71     1     0     0
SMALL
abcg2


@<TRIPOS>ATOM
      1 C1          13.8400     0.0800   -46.0150 ca         1 U3F       0.059000
      2 C2          12.6340    -0.6020   -45.8960 ca         1 U3F       0.211000
      3 C3          12.5580    -1.9810   -45.7820 ca         1 U3F      -0.162000
      4 C11         15.6150    -5.5230   -46.3960 c3         1 U3F       0.172800
      5 C12         14.5300    -4.5360   -43.0840 ca         1 U3F      -0.090000
      6 C13         14.7900    -4.7930   -41.7400 ca         1 U3F      -0.109000
      7 C14         16.0710    -5.1360   -41.3260 ca         1 U3F      -0.104000
      8 C15         17.0940    -5.2190   -42.2670 ca         1 U3F      -0.109000
      9 C16         16.8340    -4.9580   -43.6060 ca         1 U3F      -0.090000
     10 C17         16.3610     0.0380   -46.1900 cp         1 U3F      -0.009000
     11 C19         17.2110     0.1060   -45.0990 ca         1 U3F       0.174000
     12 C20         18.4740     0.6900   -45.1680 ca         1 U3F       0.100100
     13 C21         18.8930     1.2520   -46.3630 ca         1 U3F      -0.147000
     14 C22         18.0510     1.2060   -47.4670 ca         1 U3F      -0.081000
     15 C23         16.8000     0.6020   -47.4000 ca         1 U3F      -0.118600
     16 C24         15.9540     0.4960   -48.6360 c          1 U3F       0.614700
     17 C29         20.5780     0.7060   -44.1000 c3         1 U3F       0.392300
     18 C4          13.7620    -2.6620   -45.7880 ca         1 U3F       0.159100
     19 C5          14.9850    -2.0130   -45.9090 ca         1 U3F      -0.135300
     20 C6          15.0470    -0.6360   -46.0360 cp         1 U3F       0.047000
     21 O7          13.8830    -4.0080   -45.6980 os         1 U3F      -0.336100
     22 C8          15.3080    -4.3290   -45.5040 c5         1 U3F       0.220300
     23 C9          16.0660    -3.0520   -45.9600 c5         1 U3F      -0.042100
     24 C10         15.5480    -4.6180   -44.0300 ca         1 U3F      -0.081300
     25 CL18        13.8240     1.8160   -46.1310 cl         1 U3F      -0.179000
     26 F25         16.8160    -0.4040   -43.9170 f          1 U3F      -0.145000
     27 O26         15.4050    -0.5570   -48.9520 o          1 U3F      -0.589100
     28 N27         15.8730     1.6150   -49.3800 nt         1 U3F      -0.600000
     29 O28         19.2100     0.6800   -44.0050 os         1 U3F      -0.370100
     30 F30         21.0210     1.9950   -44.1940 f          1 U3F      -0.107500
     31 F31         11.4840     0.1020   -45.8810 f          1 U3F      -0.162000
     32 F32         21.0510     0.2180   -42.9360 f          1 U3F      -0.107500
     33 N33         14.8420    -6.6970   -46.0230 n7         1 U3F      -0.860400
     34 C34         15.0950    -7.8690   -46.8680 c6         1 U3F       0.173500
     35 C35         13.9820    -8.8940   -46.6560 c6         1 U3F      -0.073900
     36 C36         14.2190   -10.1600   -47.4800 c6         1 U3F      -0.090400
     37 C37         15.5800   -10.7740   -47.1650 c6         1 U3F       0.167300
     38 C38         16.6940    -9.7620   -47.3810 c6         1 U3F      -0.090400
     39 C39         16.4570    -8.4960   -46.5560 c6         1 U3F      -0.073900
     40 O40         15.8530   -11.9120   -47.9960 oh         1 U3F      -0.667000
     41 H1          11.6020    -2.4770   -45.6870 ha         1 U3F       0.152000
     42 H2          16.6790    -5.7410   -46.3030 h1         1 U3F       0.043200
     43 H3          15.4400    -5.2150   -47.4380 h1         1 U3F       0.043200
     44 H4          13.5280    -4.2770   -43.3960 ha         1 U3F       0.113000
     45 H5          13.9860    -4.7230   -41.0180 ha         1 U3F       0.112500
     46 H6          16.2730    -5.3350   -40.2810 ha         1 U3F       0.113000
     47 H7          18.0970    -5.4840   -41.9570 ha         1 U3F       0.112500
     48 H8          17.6420    -5.0200   -44.3240 ha         1 U3F       0.113000
     49 H9          19.8580     1.7300   -46.4400 ha         1 U3F       0.136000
     50 H10         18.3910     1.6330   -48.4010 ha         1 U3F       0.128000
     51 H11         20.9710     0.1350   -44.9410 h3         1 U3F       0.066700
     52 H12         16.4450    -3.1630   -46.9790 hc         1 U3F       0.076200
     53 H13         16.9100    -2.8390   -45.3080 hc         1 U3F       0.076200
     54 H14         15.3320     1.6010   -50.2310 hn         1 U3F       0.320500
     55 H15         16.2440     2.4940   -49.0620 hn         1 U3F       0.320500
     56 H16         13.8570    -6.4620   -46.0870 hn         1 U3F       0.424000
     57 H18         15.0930    -7.5820   -47.9340 h1         1 U3F       0.021700
     58 H19         13.0180    -8.4500   -46.9200 hc         1 U3F       0.049200
     59 H20         13.9390    -9.1450   -45.5910 hc         1 U3F       0.049200
     60 H21         14.1870    -9.9240   -48.5480 hc         1 U3F       0.050200
     61 H22         13.4300   -10.8920   -47.2830 hc         1 U3F       0.050200
     62 H23         15.5890   -11.0880   -46.1130 h1         1 U3F       0.032700
     63 H24         17.6540   -10.2110   -47.1190 hc         1 U3F       0.050200
     64 H25         16.7320    -9.5120   -48.4470 hc         1 U3F       0.050200
     65 H26         16.4860    -8.7340   -45.4870 hc         1 U3F       0.049200
     66 H27         17.2610    -7.7840   -46.7470 hc         1 U3F       0.049200
     67 H28         15.1510   -12.5600   -47.8550 ho         1 U3F       0.439000
@<TRIPOS>BOND
     1     1     2 ar  
     2     1    20 ar  
     3     1    25 1   
     4     2     3 ar  
     5     2    31 1   
     6     3    18 ar  
     7     3    41 1   
     8     4    22 1   
     9     4    33 1   
    10     4    42 1   
    11     4    43 1   
    12     5     6 ar  
    13     5    24 ar  
    14     5    44 1   
    15     6     7 ar  
    16     6    45 1   
    17     7     8 ar  
    18     7    46 1   
    19     8     9 ar  
    20     8    47 1   
    21     9    24 ar  
    22     9    48 1   
    23    10    11 ar  
    24    10    15 ar  
    25    10    20 1   
    26    11    12 ar  
    27    11    26 1   
    28    12    13 ar  
    29    12    29 1   
    30    13    14 ar  
    31    13    49 1   
    32    14    15 ar  
    33    14    50 1   
    34    15    16 1   
    35    16    27 2   
    36    16    28 1   
    37    17    29 1   
    38    17    30 1   
    39    17    32 1   
    40    17    51 1   
    41    18    19 ar  
    42    18    21 1   
    43    19    20 ar  
    44    19    23 1   
    45    21    22 1   
    46    22    23 1   
    47    22    24 1   
    48    23    52 1   
    49    23    53 1   
    50    28    54 1   
    51    28    55 1   
    52    33    34 1   
    53    33    56 1   
    54    34    35 1   
    55    34    39 1   
    56    34    57 1   
    57    35    36 1   
    58    35    58 1   
    59    35    59 1   
    60    36    37 1   
    61    36    60 1   
    62    36    61 1   
    63    37    38 1   
    64    37    40 1   
    65    37    62 1   
    66    38    39 1   
    67    38    63 1   
    68    38    64 1   
    69    39    65 1   
    70    39    66 1   
    71    40    67 1   
@<TRIPOS>SUBSTRUCTURE
     1 U3F         1 TEMP              0 ****  ****    0 ROOT
