@<TRIPOS>MOLECULE
U3F
   67    71     1     0     0
SMALL
No Charge or Current Charge


@<TRIPOS>ATOM
      1 C1          13.8380    -0.2220   -46.4030 ca         1 U3F       0.059000
      2 C2          12.5980    -0.8920   -46.2280 ca         1 U3F       0.211000
      3 C3          12.5460    -2.2030   -45.7120 ca         1 U3F      -0.162000
      4 C11         15.6060    -5.4000   -46.0190 c3         1 U3F       0.172800
      5 C12         15.2310    -4.1230   -42.3270 ca         1 U3F      -0.090000
      6 C13         15.6090    -4.4820   -41.0220 ca         1 U3F      -0.109000
      7 C14         16.5290    -5.5200   -40.8160 ca         1 U3F      -0.104000
      8 C15         17.0720    -6.1960   -41.9190 ca         1 U3F      -0.109000
      9 C16         16.6950    -5.8380   -43.2250 ca         1 U3F      -0.090000
     10 C17         16.3840    -0.1960   -46.2160 cp         1 U3F      -0.009000
     11 C19         16.9890     0.3750   -45.0670 ca         1 U3F       0.174000
     12 C20         18.2190     1.0620   -45.1410 ca         1 U3F       0.100100
     13 C21         18.8660     1.1860   -46.3880 ca         1 U3F      -0.147000
     14 C22         18.2890     0.6330   -47.5420 ca         1 U3F      -0.081000
     15 C23         17.0600    -0.0610   -47.4690 ca         1 U3F      -0.118600
     16 C24         16.4190    -0.6720   -48.7050 c          1 U3F       0.614700
     17 C29         19.9380     2.4070   -43.9640 c3         1 U3F       0.392300
     18 C4          13.7520    -2.8260   -45.3840 ca         1 U3F       0.159100
     19 C5          14.9380    -2.1760   -45.5460 ca         1 U3F      -0.135300
     20 C6          15.0590    -0.8680   -46.0590 cp         1 U3F       0.047000
     21 O7          13.8820    -4.0850   -44.8770 os         1 U3F      -0.336100
     22 C8          15.3390    -4.3630   -44.8760 c5         1 U3F       0.220300
     23 C9          16.1140    -2.9940   -45.1370 c5         1 U3F      -0.042100
     24 C10         15.7620    -4.7970   -43.4530 ca         1 U3F      -0.081300
     25 Cl18        13.8540     1.4250   -47.0430 cl         1 U3F      -0.179000
     26 F25         16.3660     0.2720   -43.8680 f          1 U3F      -0.145000
     27 O26         15.6640    -1.6300   -48.6900 o          1 U3F      -0.589100
     28 N27         16.7550    -0.1370   -49.8980 nt         1 U3F      -0.600000
     29 O28         18.7530     1.5900   -43.9770 os         1 U3F      -0.370100
     30 F30         19.7090     3.5970   -44.5650 f          1 U3F      -0.107500
     31 F31         11.4410    -0.2720   -46.5540 f          1 U3F      -0.162000
     32 F32         20.2960     2.6860   -42.6910 f          1 U3F      -0.107500
     33 N33         14.8610    -6.6750   -45.8480 n7         1 U3F      -0.860400
     34 C34         14.9170    -7.6530   -46.9510 c6         1 U3F       0.173500
     35 C35         13.8780    -8.7780   -46.7030 c6         1 U3F      -0.073900
     36 C36         13.9160    -9.8470   -47.8250 c6         1 U3F      -0.090400
     37 C37         15.3350   -10.4490   -47.9790 c6         1 U3F       0.167300
     38 C38         16.3760    -9.3300   -48.2340 c6         1 U3F      -0.090400
     39 C39         16.3400    -8.2570   -47.1150 c6         1 U3F      -0.073900
     40 O40         15.3550   -11.3850   -49.0590 oh         1 U3F      -0.667000
     41 H1          11.5990    -2.7160   -45.5780 ha         1 U3F       0.152000
     42 H2          16.6860    -5.5830   -46.0840 h1         1 U3F       0.043200
     43 H3          15.3110    -4.9270   -46.9660 h1         1 U3F       0.043200
     44 H4          14.5210    -3.3110   -42.4640 ha         1 U3F       0.113000
     45 H5          15.1880    -3.9520   -40.1700 ha         1 U3F       0.112500
     46 H6          16.8220    -5.7990   -39.8060 ha         1 U3F       0.113000
     47 H7          17.7880    -7.0010   -41.7640 ha         1 U3F       0.112500
     48 H8          17.1370    -6.3810   -44.0560 ha         1 U3F       0.113000
     49 H9          19.8180     1.7010   -46.4850 ha         1 U3F       0.136000
     50 H10         18.8180     0.7310   -48.4880 ha         1 U3F       0.128000
     51 H11         20.7720     1.9020   -44.4620 h3         1 U3F       0.066700
     52 H12         16.8710    -3.0810   -45.9260 hc         1 U3F       0.076200
     53 H13         16.6080    -2.5930   -44.2450 hc         1 U3F       0.076200
     54 H14         16.3570    -0.5260   -50.7390 hn         1 U3F       0.320500
     55 H15         17.3630     0.6660   -49.9420 hn         1 U3F       0.320500
     56 H16         13.8780    -6.4190   -45.6950 hn         1 U3F       0.424000
     57 H18         14.6430    -7.1390   -47.8850 h1         1 U3F       0.021700
     58 H19         12.8690    -8.3480   -46.6410 hc         1 U3F       0.049200
     59 H20         14.0730    -9.2580   -45.7330 hc         1 U3F       0.049200
     60 H21         13.5960    -9.3930   -48.7740 hc         1 U3F       0.050200
     61 H22         13.1920   -10.6420   -47.5980 hc         1 U3F       0.050200
     62 H23         15.6000   -10.9590   -47.0400 h1         1 U3F       0.032700
     63 H24         17.3820    -9.7650   -48.2950 hc         1 U3F       0.050200
     64 H25         16.1810    -8.8540   -49.2050 hc         1 U3F       0.050200
     65 H26         16.6670    -8.7030   -46.1660 hc         1 U3F       0.049200
     66 H27         17.0640    -7.4680   -47.3560 hc         1 U3F       0.049200
     67 H28         14.7310   -12.1050   -48.8190 ho         1 U3F       0.439000
@<TRIPOS>BOND
     1     1     2 ar  
     2     1    20 ar  
     3     1    25 1   
     4     2     3 ar  
     5     2    31 1   
     6     3    18 ar  
     7     3    41 1   
     8     4    22 1   
     9     4    33 1   
    10     4    42 1   
    11     4    43 1   
    12     5     6 ar  
    13     5    24 ar  
    14     5    44 1   
    15     6     7 ar  
    16     6    45 1   
    17     7     8 ar  
    18     7    46 1   
    19     8     9 ar  
    20     8    47 1   
    21     9    24 ar  
    22     9    48 1   
    23    10    11 ar  
    24    10    15 ar  
    25    10    20 1   
    26    11    12 ar  
    27    11    26 1   
    28    12    13 ar  
    29    12    29 1   
    30    13    14 ar  
    31    13    49 1   
    32    14    15 ar  
    33    14    50 1   
    34    15    16 1   
    35    16    27 2   
    36    16    28 1   
    37    17    29 1   
    38    17    30 1   
    39    17    32 1   
    40    17    51 1   
    41    18    19 ar  
    42    18    21 1   
    43    19    20 ar  
    44    19    23 1   
    45    21    22 1   
    46    22    23 1   
    47    22    24 1   
    48    23    52 1   
    49    23    53 1   
    50    28    54 1   
    51    28    55 1   
    52    33    34 1   
    53    33    56 1   
    54    34    35 1   
    55    34    39 1   
    56    34    57 1   
    57    35    36 1   
    58    35    58 1   
    59    35    59 1   
    60    36    37 1   
    61    36    60 1   
    62    36    61 1   
    63    37    38 1   
    64    37    40 1   
    65    37    62 1   
    66    38    39 1   
    67    38    63 1   
    68    38    64 1   
    69    39    65 1   
    70    39    66 1   
    71    40    67 1   
@<TRIPOS>SUBSTRUCTURE
     1 U3F         1 TEMP              0 ****  ****    0 ROOT
