@<TRIPOS>MOLECULE
U3G
  128   127     1     0     0
SMALL
No Charge or Current Charge


@<TRIPOS>ATOM
      1 C10        145.9110   147.2000   165.6940 c2         1 U3G      -0.210200
      2 C11        146.6130   148.2090   164.8050 c3         1 U3G      -0.051200
      3 C12        148.0430   147.7640   164.4220 c3         1 U3G      -0.072400
      4 C13        148.8180   148.7790   163.5470 c3         1 U3G      -0.075400
      5 C14        148.2390   148.9700   162.1260 c3         1 U3G      -0.077400
      6 C15        149.0570   149.9640   161.2720 c3         1 U3G      -0.079400
      7 C16        148.4880   150.2080   159.8530 c3         1 U3G      -0.069400
      8 C01        153.4760   146.7590   174.0350 c3         1 U3G      -0.088100
      9 C02        152.5470   147.6610   173.2000 c3         1 U3G      -0.075400
     10 C03        151.5680   146.8620   172.3130 c3         1 U3G      -0.076400
     11 C04        150.6610   147.7640   171.4480 c3         1 U3G      -0.074400
     12 C05        149.6760   146.9630   170.5690 c3         1 U3G      -0.077400
     13 C06        148.7630   147.8610   169.7080 c3         1 U3G      -0.074400
     14 C07        147.7950   147.0480   168.8230 c3         1 U3G      -0.075400
     15 C08        146.8680   147.9280   167.9600 c3         1 U3G      -0.043200
     16 C09        146.0060   147.0910   167.0310 c2         1 U3G      -0.227200
     17 C17        148.4480   148.9660   158.9210 c3         1 U3G      -0.138400
     18 C18        149.8200   148.3040   158.7800 c          1 U3G       0.613100
     19 C21        152.0220   148.6500   157.7940 c3         1 U3G       0.148300
     20 C22        152.7800   149.0730   159.0850 c3         1 U3G       0.170600
     21 C24        153.1070   151.1610   160.3790 c          1 U3G       0.611100
     22 C26        153.8780   150.3360   161.4400 c3         1 U3G      -0.189400
     23 C27        152.9600   149.7620   162.5560 c3         1 U3G      -0.067400
     24 C28        152.1670   150.8170   163.3640 c3         1 U3G      -0.052200
     25 C29        153.0530   151.8540   164.0320 c2         1 U3G      -0.206200
     26 C30        153.7600   151.7040   165.1670 c2         1 U3G      -0.231200
     27 C31        153.8580   150.4570   166.0260 c3         1 U3G      -0.015000
     28 C32        153.5930   150.7650   167.4870 c2         1 U3G      -0.211200
     29 C33        153.9260   149.9970   168.5400 c2         1 U3G      -0.227200
     30 C34        154.6380   148.6570   168.5040 c3         1 U3G      -0.013000
     31 C35        153.7960   147.5940   169.1790 c2         1 U3G      -0.216200
     32 C36        153.0300   146.6580   168.5890 c2         1 U3G      -0.213200
     33 C37        152.7940   146.4430   167.1060 c3         1 U3G      -0.011000
     34 C38        151.3080   146.4280   166.8010 c2         1 U3G      -0.212200
     35 C39        150.5570   145.3650   166.4620 c2         1 U3G      -0.221200
     36 C40        151.0140   143.9250   166.3260 c3         1 U3G      -0.041200
     37 C41        151.1830   143.2160   167.6890 c3         1 U3G      -0.069400
     38 C42        149.8840   143.1540   168.5290 c3         1 U3G      -0.075400
     39 C43        150.0290   142.3960   169.8700 c3         1 U3G      -0.073400
     40 C44        150.9480   143.0880   170.8990 c3         1 U3G      -0.090100
     41 C45        152.5900   149.3450   156.5310 c3         1 U3G       0.230600
     42 C51        151.0910   151.5790   154.2590 c3         1 U3G       0.231600
     43 C52        149.9700   151.5530   155.3400 c3         1 U3G       0.130800
     44 N53        149.7880   152.8500   156.0460 n8         1 U3G      -1.002200
     45 O19        150.1890   147.3540   159.4560 o          1 U3G      -0.487000
     46 O20        150.6210   149.0060   157.9190 os         1 U3G      -0.442100
     47 O23        152.6250   150.4970   159.2690 os         1 U3G      -0.437100
     48 O25        152.9070   152.3560   160.5270 o          1 U3G      -0.448000
     49 O46        152.0170   148.7310   155.3660 os         1 U3G      -0.581400
     50 O48        152.3780   148.1690   152.9120 o          1 U3G      -0.817000
     51 O49        153.7170   149.9920   153.8920 o          1 U3G      -0.817000
     52 O50        151.1710   150.2880   153.6350 os         1 U3G      -0.616400
     53 P47        152.4050   149.2840   153.9040 p5         1 U3G       1.399800
     54 H1         145.2550   146.5190   165.1470 ha         1 U3G       0.164000
     55 H2         146.6640   149.1860   165.3020 hc         1 U3G       0.048200
     56 H3         146.0160   148.3640   163.8990 hc         1 U3G       0.048200
     57 H4         147.9980   146.7980   163.9040 hc         1 U3G       0.040200
     58 H5         148.6150   147.6000   165.3420 hc         1 U3G       0.040200
     59 H6         149.8560   148.4350   163.4600 hc         1 U3G       0.037700
     60 H7         148.8520   149.7470   164.0620 hc         1 U3G       0.037700
     61 H8         147.2070   149.3330   162.1910 hc         1 U3G       0.039700
     62 H9         148.2070   147.9940   161.6260 hc         1 U3G       0.039700
     63 H10        150.0930   149.6160   161.1950 hc         1 U3G       0.035200
     64 H11        149.0940   150.9270   161.7960 hc         1 U3G       0.035200
     65 H12        149.0950   150.9860   159.3710 hc         1 U3G       0.048200
     66 H13        147.4750   150.6210   159.9380 hc         1 U3G       0.048200
     67 H14        154.1500   147.3690   174.6490 hc         1 U3G       0.030033
     68 H15        152.8920   146.1140   174.7030 hc         1 U3G       0.030033
     69 H16        154.0860   146.1230   173.3840 hc         1 U3G       0.030033
     70 H17        153.1600   148.3170   172.5690 hc         1 U3G       0.036700
     71 H18        151.9770   148.3100   173.8760 hc         1 U3G       0.036700
     72 H19        150.9410   146.2270   172.9520 hc         1 U3G       0.036200
     73 H20        152.1390   146.1900   171.6600 hc         1 U3G       0.036200
     74 H21        151.2870   148.3940   170.8040 hc         1 U3G       0.036700
     75 H22        150.0940   148.4370   172.1020 hc         1 U3G       0.036700
     76 H23        149.0540   146.3270   171.2110 hc         1 U3G       0.038200
     77 H24        150.2420   146.2950   169.9100 hc         1 U3G       0.038200
     78 H25        149.3860   148.4990   169.0680 hc         1 U3G       0.038700
     79 H26        148.1860   148.5250   170.3630 hc         1 U3G       0.038700
     80 H27        147.1830   146.3960   169.4590 hc         1 U3G       0.039700
     81 H28        148.3770   146.3940   168.1650 hc         1 U3G       0.039700
     82 H29        147.4830   148.6400   167.3980 hc         1 U3G       0.045200
     83 H30        146.2270   148.5260   168.6200 hc         1 U3G       0.045200
     84 H31        145.4280   146.3210   167.5450 ha         1 U3G       0.161000
     85 H32        148.1430   149.3360   157.9360 hc         1 U3G       0.080200
     86 H33        147.7230   148.2370   159.2990 hc         1 U3G       0.080200
     87 H34        152.1370   147.5660   157.6620 h1         1 U3G       0.081700
     88 H35        152.3850   148.5160   159.9420 h1         1 U3G       0.039200
     89 H36        153.8390   148.8100   158.9680 h1         1 U3G       0.039200
     90 H37        154.4030   149.4880   160.9920 hc         1 U3G       0.062700
     91 H38        154.6190   150.9910   161.9130 hc         1 U3G       0.062700
     92 H39        152.2510   149.0490   162.1210 hc         1 U3G       0.049700
     93 H40        153.5810   149.1830   163.2500 hc         1 U3G       0.049700
     94 H41        151.4440   151.3160   162.7070 hc         1 U3G       0.057700
     95 H42        151.5630   150.2980   164.1170 hc         1 U3G       0.057700
     96 H43        153.0820   152.8100   163.5040 ha         1 U3G       0.176000
     97 H44        154.3600   152.5370   165.5370 ha         1 U3G       0.166000
     98 H45        153.1570   149.6850   165.6880 hc         1 U3G       0.052200
     99 H46        154.8600   150.0270   165.9070 hc         1 U3G       0.052200
    100 H47        153.0690   151.7080   167.6560 ha         1 U3G       0.172000
    101 H48        153.6720   150.3300   169.5480 ha         1 U3G       0.169000
    102 H49        154.8940   148.3620   167.4820 hc         1 U3G       0.054200
    103 H50        155.5990   148.7420   169.0250 hc         1 U3G       0.054200
    104 H51        153.8630   147.6170   170.2670 ha         1 U3G       0.166000
    105 H52        152.4910   145.9440   169.2140 ha         1 U3G       0.167000
    106 H53        153.2670   145.5020   166.8030 hc         1 U3G       0.049200
    107 H54        153.2710   147.2210   166.5020 hc         1 U3G       0.049200
    108 H55        150.8440   147.4140   166.8710 ha         1 U3G       0.177000
    109 H56        149.4930   145.5020   166.2590 ha         1 U3G       0.168000
    110 H57        151.9660   143.8780   165.7830 hc         1 U3G       0.042200
    111 H58        150.2960   143.3630   165.7150 hc         1 U3G       0.042200
    112 H59        151.9670   143.7290   168.2570 hc         1 U3G       0.037200
    113 H60        151.5430   142.1950   167.5100 hc         1 U3G       0.037200
    114 H61        149.1040   142.6630   167.9350 hc         1 U3G       0.039700
    115 H62        149.5270   144.1710   168.7340 hc         1 U3G       0.039700
    116 H63        149.0330   142.2850   170.3160 hc         1 U3G       0.034200
    117 H64        150.3990   141.3820   169.6780 hc         1 U3G       0.034200
    118 H65        150.9580   142.5230   171.8390 hc         1 U3G       0.031033
    119 H66        151.9790   143.1500   170.5330 hc         1 U3G       0.031033
    120 H67        150.5930   144.1010   171.1160 hc         1 U3G       0.031033
    121 H68        153.6810   149.2240   156.5240 h1         1 U3G       0.038200
    122 H69        152.3710   150.4200   156.5700 h1         1 U3G       0.038200
    123 H70        152.0430   151.8600   154.7280 h1         1 U3G       0.026200
    124 H71        150.8500   152.3430   153.5080 h1         1 U3G       0.026200
    125 H72        149.0180   151.2940   154.8560 h1         1 U3G       0.029700
    126 H73        150.1870   150.7810   156.0880 h1         1 U3G       0.029700
    127 H74        149.0470   152.7450   156.7490 hn         1 U3G       0.379000
    128 H75        150.6260   153.0480   156.6070 hn         1 U3G       0.379000
@<TRIPOS>BOND
     1     1     2 1   
     2     1    16 2   
     3     1    54 1   
     4     2     3 1   
     5     2    55 1   
     6     2    56 1   
     7     3     4 1   
     8     3    57 1   
     9     3    58 1   
    10     4     5 1   
    11     4    59 1   
    12     4    60 1   
    13     5     6 1   
    14     5    61 1   
    15     5    62 1   
    16     6     7 1   
    17     6    63 1   
    18     6    64 1   
    19     7    17 1   
    20     7    65 1   
    21     7    66 1   
    22     8     9 1   
    23     8    67 1   
    24     8    68 1   
    25     8    69 1   
    26     9    10 1   
    27     9    70 1   
    28     9    71 1   
    29    10    11 1   
    30    10    72 1   
    31    10    73 1   
    32    11    12 1   
    33    11    74 1   
    34    11    75 1   
    35    12    13 1   
    36    12    76 1   
    37    12    77 1   
    38    13    14 1   
    39    13    78 1   
    40    13    79 1   
    41    14    15 1   
    42    14    80 1   
    43    14    81 1   
    44    15    16 1   
    45    15    82 1   
    46    15    83 1   
    47    16    84 1   
    48    17    18 1   
    49    17    85 1   
    50    17    86 1   
    51    18    45 2   
    52    18    46 1   
    53    19    20 1   
    54    19    41 1   
    55    19    46 1   
    56    19    87 1   
    57    20    47 1   
    58    20    88 1   
    59    20    89 1   
    60    21    22 1   
    61    21    47 1   
    62    21    48 2   
    63    22    23 1   
    64    22    90 1   
    65    22    91 1   
    66    23    24 1   
    67    23    92 1   
    68    23    93 1   
    69    24    25 1   
    70    24    94 1   
    71    24    95 1   
    72    25    26 2   
    73    25    96 1   
    74    26    27 1   
    75    26    97 1   
    76    27    28 1   
    77    27    98 1   
    78    27    99 1   
    79    28    29 2   
    80    28   100 1   
    81    29    30 1   
    82    29   101 1   
    83    30    31 1   
    84    30   102 1   
    85    30   103 1   
    86    31    32 2   
    87    31   104 1   
    88    32    33 1   
    89    32   105 1   
    90    33    34 1   
    91    33   106 1   
    92    33   107 1   
    93    34    35 2   
    94    34   108 1   
    95    35    36 1   
    96    35   109 1   
    97    36    37 1   
    98    36   110 1   
    99    36   111 1   
   100    37    38 1   
   101    37   112 1   
   102    37   113 1   
   103    38    39 1   
   104    38   114 1   
   105    38   115 1   
   106    39    40 1   
   107    39   116 1   
   108    39   117 1   
   109    40   118 1   
   110    40   119 1   
   111    40   120 1   
   112    41    49 1   
   113    41   121 1   
   114    41   122 1   
   115    42    43 1   
   116    42    52 1   
   117    42   123 1   
   118    42   124 1   
   119    43    44 1   
   120    43   125 1   
   121    43   126 1   
   122    44   127 1   
   123    44   128 1   
   124    49    53 1   
   125    50    53 1   
   126    51    53 1   
   127    52    53 1   
@<TRIPOS>SUBSTRUCTURE
     1 U3G         1 TEMP              0 ****  ****    0 ROOT
