@<TRIPOS>MOLECULE
U3G
  128   127     1     0     0
SMALL
bcc


@<TRIPOS>ATOM
      1 C10        147.3540   147.2640   165.7070 c2         1 U3G      -0.160200
      2 C11        148.5060   147.6720   164.8410 c3         1 U3G      -0.051200
      3 C12        148.9730   146.5660   163.8930 c3         1 U3G      -0.072400
      4 C13        150.0510   147.0470   162.9220 c3         1 U3G      -0.075400
      5 C14        149.5100   147.9320   161.7980 c3         1 U3G      -0.077400
      6 C15        150.5870   148.7980   161.1580 c3         1 U3G      -0.079400
      7 C16        150.0720   149.7120   160.0450 c3         1 U3G      -0.069400
      8 C01        153.3290   145.9000   174.7900 c3         1 U3G      -0.088100
      9 C02        152.8740   146.9270   173.7620 c3         1 U3G      -0.075400
     10 C03        151.6500   146.4730   172.9750 c3         1 U3G      -0.076400
     11 C04        151.1860   147.4800   171.9320 c3         1 U3G      -0.074400
     12 C05        149.9890   146.9890   171.1300 c3         1 U3G      -0.077400
     13 C06        149.5300   147.9560   170.0490 c3         1 U3G      -0.074400
     14 C07        148.4390   147.3630   169.1670 c3         1 U3G      -0.075400
     15 C08        148.1150   148.2130   167.9390 c3         1 U3G      -0.043200
     16 C09        147.1800   147.5080   167.0060 c2         1 U3G      -0.177200
     17 C17        149.9560   149.0320   158.6790 c3         1 U3G      -0.138400
     18 C18        151.2840   148.6620   158.0720 c          1 U3G       0.662100
     19 C21        153.3510   149.6180   157.3190 c3         1 U3G       0.125100
     20 C22        154.3970   150.2040   158.2400 c3         1 U3G       0.147400
     21 C24        154.4200   152.2960   159.5030 c          1 U3G       0.660100
     22 C26        154.7400   151.5560   160.7750 c3         1 U3G      -0.189400
     23 C27        153.4740   150.9620   161.4060 c3         1 U3G      -0.067400
     24 C28        152.5060   152.0090   161.9670 c3         1 U3G      -0.052200
     25 C29        153.0320   152.6880   163.2010 c2         1 U3G      -0.156200
     26 C30        153.0760   152.1350   164.4120 c2         1 U3G      -0.181200
     27 C31        152.6190   150.7480   164.7600 c3         1 U3G      -0.015000
     28 C32        151.8590   150.6720   166.0520 c2         1 U3G      -0.161200
     29 C33        151.8770   149.6450   166.8990 c2         1 U3G      -0.177200
     30 C34        152.6780   148.3810   166.7270 c3         1 U3G      -0.013000
     31 C35        152.8120   147.6150   168.0090 c2         1 U3G      -0.166200
     32 C36        152.6040   146.3130   168.1890 c2         1 U3G      -0.163200
     33 C37        152.1850   145.3150   167.1440 c3         1 U3G      -0.011000
     34 C38        150.6920   145.1530   167.1450 c2         1 U3G      -0.162200
     35 C39        149.9810   144.1330   167.6240 c2         1 U3G      -0.171200
     36 C40        150.4940   142.8940   168.2890 c3         1 U3G      -0.041200
     37 C41        150.1930   142.8500   169.7930 c3         1 U3G      -0.069400
     38 C42        148.7060   142.9070   170.1250 c3         1 U3G      -0.075400
     39 C43        148.3850   142.5600   171.5770 c3         1 U3G      -0.073400
     40 C44        148.9200   143.5650   172.5880 c3         1 U3G      -0.090100
     41 C45        153.2800   150.3050   155.9660 c3         1 U3G       0.207400
     42 C51        149.4250   151.9570   154.8530 c3         1 U3G       0.208400
     43 C52        148.3230   152.0160   155.8950 c3         1 U3G       0.130800
     44 N53        147.3500   153.0300   155.5200 n8         1 U3G      -0.891800
     45 O19        151.5990   147.5510   157.7310 o          1 U3G      -0.536000
     46 O20        152.0750   149.7310   157.9530 os         1 U3G      -0.418900
     47 O23        154.1670   151.6020   158.3880 os         1 U3G      -0.413900
     48 O25        154.3190   153.4940   159.4410 o          1 U3G      -0.497000
     49 O46        152.3940   149.5820   155.1430 os         1 U3G      -0.558200
     50 O48        150.6720   149.2910   153.3520 o          1 U3G      -0.817000
     51 O49        152.0920   151.4820   153.4160 o          1 U3G      -0.817000
     52 O50        150.3760   150.9920   155.2580 os         1 U3G      -0.593200
     53 P47        151.3820   150.3630   154.1140 p5         1 U3G       1.399800
     54 H1         146.5590   146.7320   165.1890 ha         1 U3G       0.114000
     55 H2         149.3530   148.0100   165.4440 hc         1 U3G       0.048200
     56 H3         148.1970   148.5420   164.2500 hc         1 U3G       0.048200
     57 H4         148.1180   146.1770   163.3310 hc         1 U3G       0.040200
     58 H5         149.3560   145.7300   164.4840 hc         1 U3G       0.040200
     59 H6         150.5690   146.1880   162.4870 hc         1 U3G       0.037700
     60 H7         150.8110   147.5970   163.4890 hc         1 U3G       0.037700
     61 H8         148.7330   148.5950   162.1900 hc         1 U3G       0.039700
     62 H9         149.0180   147.3040   161.0470 hc         1 U3G       0.039700
     63 H10        151.4090   148.1720   160.7920 hc         1 U3G       0.035200
     64 H11        151.0230   149.4160   161.9470 hc         1 U3G       0.035200
     65 H12        150.7110   150.5910   159.9560 hc         1 U3G       0.048200
     66 H13        149.0850   150.0940   160.3210 hc         1 U3G       0.048200
     67 H14        154.2060   146.2440   175.3400 hc         1 U3G       0.030033
     68 H15        152.5420   145.6970   175.5190 hc         1 U3G       0.030033
     69 H16        153.5880   144.9530   174.3130 hc         1 U3G       0.030033
     70 H17        153.6930   147.1350   173.0660 hc         1 U3G       0.036700
     71 H18        152.6530   147.8750   174.2610 hc         1 U3G       0.036700
     72 H19        150.8290   146.2660   173.6710 hc         1 U3G       0.036200
     73 H20        151.8730   145.5200   172.4810 hc         1 U3G       0.036200
     74 H21        152.0120   147.6970   171.2450 hc         1 U3G       0.036700
     75 H22        150.9390   148.4290   172.4210 hc         1 U3G       0.036700
     76 H23        149.1560   146.7750   171.8100 hc         1 U3G       0.038200
     77 H24        150.2480   146.0310   170.6620 hc         1 U3G       0.038200
     78 H25        150.3900   148.2170   169.4230 hc         1 U3G       0.038700
     79 H26        149.1860   148.8910   170.5040 hc         1 U3G       0.038700
     80 H27        147.5290   147.2000   169.7540 hc         1 U3G       0.039700
     81 H28        148.7650   146.3750   168.8300 hc         1 U3G       0.039700
     82 H29        149.0440   148.4820   167.4300 hc         1 U3G       0.045200
     83 H30        147.6640   149.1580   168.2630 hc         1 U3G       0.045200
     84 H31        146.2600   147.1510   167.4630 ha         1 U3G       0.111000
     85 H32        149.4490   149.7050   157.9810 hc         1 U3G       0.080200
     86 H33        149.3520   148.1270   158.7460 hc         1 U3G       0.080200
     87 H34        153.6150   148.5670   157.1760 h1         1 U3G       0.081700
     88 H35        154.3730   149.6690   159.1890 h1         1 U3G       0.039200
     89 H36        155.3860   150.0530   157.7990 h1         1 U3G       0.039200
     90 H37        155.4740   150.7660   160.6020 hc         1 U3G       0.062700
     91 H38        155.2020   152.2650   161.4620 hc         1 U3G       0.062700
     92 H39        152.9480   150.3390   160.6790 hc         1 U3G       0.049700
     93 H40        153.7810   150.2890   162.2080 hc         1 U3G       0.049700
     94 H41        152.2690   152.7530   161.2040 hc         1 U3G       0.057700
     95 H42        151.5610   151.5100   162.1950 hc         1 U3G       0.057700
     96 H43        153.4240   153.6930   163.0850 ha         1 U3G       0.126000
     97 H44        153.5000   152.7130   165.2280 ha         1 U3G       0.116000
     98 H45        151.9920   150.3430   163.9590 hc         1 U3G       0.052200
     99 H46        153.4920   150.0870   164.8000 hc         1 U3G       0.052200
    100 H47        151.2150   151.5160   166.2830 ha         1 U3G       0.122000
    101 H48        151.2480   149.7020   167.7820 ha         1 U3G       0.119000
    102 H49        152.2180   147.7600   165.9520 hc         1 U3G       0.054200
    103 H50        153.6760   148.6300   166.3470 hc         1 U3G       0.054200
    104 H51        153.1010   148.2040   168.8760 ha         1 U3G       0.116000
    105 H52        152.7080   145.9150   169.1950 ha         1 U3G       0.117000
    106 H53        152.6830   144.3640   167.3390 hc         1 U3G       0.049200
    107 H54        152.5070   145.6370   166.1510 hc         1 U3G       0.049200
    108 H55        150.1460   145.9950   166.7280 ha         1 U3G       0.127000
    109 H56        148.9000   144.2140   167.5500 ha         1 U3G       0.118000
    110 H57        151.5710   142.7890   168.1400 hc         1 U3G       0.042200
    111 H58        150.0290   142.0210   167.8190 hc         1 U3G       0.042200
    112 H59        150.7260   143.6690   170.2850 hc         1 U3G       0.037200
    113 H60        150.6140   141.9240   170.1970 hc         1 U3G       0.037200
    114 H61        148.1720   142.2100   169.4700 hc         1 U3G       0.039700
    115 H62        148.3090   143.9030   169.8980 hc         1 U3G       0.039700
    116 H63        147.3000   142.4840   171.6920 hc         1 U3G       0.034200
    117 H64        148.7820   141.5650   171.8020 hc         1 U3G       0.034200
    118 H65        148.6650   143.2740   173.6080 hc         1 U3G       0.031033
    119 H66        150.0060   143.6590   172.5370 hc         1 U3G       0.031033
    120 H67        148.5000   144.5570   172.4140 hc         1 U3G       0.031033
    121 H68        154.2850   150.3110   155.5300 h1         1 U3G       0.038200
    122 H69        152.9750   151.3470   156.0910 h1         1 U3G       0.038200
    123 H70        149.8960   152.9420   154.7530 h1         1 U3G       0.026200
    124 H71        148.9800   151.7120   153.8820 h1         1 U3G       0.026200
    125 H72        147.8170   151.0480   155.9290 h1         1 U3G       0.029700
    126 H73        148.7730   152.1720   156.8850 h1         1 U3G       0.029700
    127 H74        146.5480   152.9750   156.1330 hn         1 U3G       0.323800
    128 H75        147.7450   153.9510   155.6680 hn         1 U3G       0.323800
@<TRIPOS>BOND
     1     1     2 1   
     2     1    16 2   
     3     1    54 1   
     4     2     3 1   
     5     2    55 1   
     6     2    56 1   
     7     3     4 1   
     8     3    57 1   
     9     3    58 1   
    10     4     5 1   
    11     4    59 1   
    12     4    60 1   
    13     5     6 1   
    14     5    61 1   
    15     5    62 1   
    16     6     7 1   
    17     6    63 1   
    18     6    64 1   
    19     7    17 1   
    20     7    65 1   
    21     7    66 1   
    22     8     9 1   
    23     8    67 1   
    24     8    68 1   
    25     8    69 1   
    26     9    10 1   
    27     9    70 1   
    28     9    71 1   
    29    10    11 1   
    30    10    72 1   
    31    10    73 1   
    32    11    12 1   
    33    11    74 1   
    34    11    75 1   
    35    12    13 1   
    36    12    76 1   
    37    12    77 1   
    38    13    14 1   
    39    13    78 1   
    40    13    79 1   
    41    14    15 1   
    42    14    80 1   
    43    14    81 1   
    44    15    16 1   
    45    15    82 1   
    46    15    83 1   
    47    16    84 1   
    48    17    18 1   
    49    17    85 1   
    50    17    86 1   
    51    18    45 2   
    52    18    46 1   
    53    19    20 1   
    54    19    41 1   
    55    19    46 1   
    56    19    87 1   
    57    20    47 1   
    58    20    88 1   
    59    20    89 1   
    60    21    22 1   
    61    21    47 1   
    62    21    48 2   
    63    22    23 1   
    64    22    90 1   
    65    22    91 1   
    66    23    24 1   
    67    23    92 1   
    68    23    93 1   
    69    24    25 1   
    70    24    94 1   
    71    24    95 1   
    72    25    26 2   
    73    25    96 1   
    74    26    27 1   
    75    26    97 1   
    76    27    28 1   
    77    27    98 1   
    78    27    99 1   
    79    28    29 2   
    80    28   100 1   
    81    29    30 1   
    82    29   101 1   
    83    30    31 1   
    84    30   102 1   
    85    30   103 1   
    86    31    32 2   
    87    31   104 1   
    88    32    33 1   
    89    32   105 1   
    90    33    34 1   
    91    33   106 1   
    92    33   107 1   
    93    34    35 2   
    94    34   108 1   
    95    35    36 1   
    96    35   109 1   
    97    36    37 1   
    98    36   110 1   
    99    36   111 1   
   100    37    38 1   
   101    37   112 1   
   102    37   113 1   
   103    38    39 1   
   104    38   114 1   
   105    38   115 1   
   106    39    40 1   
   107    39   116 1   
   108    39   117 1   
   109    40   118 1   
   110    40   119 1   
   111    40   120 1   
   112    41    49 1   
   113    41   121 1   
   114    41   122 1   
   115    42    43 1   
   116    42    52 1   
   117    42   123 1   
   118    42   124 1   
   119    43    44 1   
   120    43   125 1   
   121    43   126 1   
   122    44   127 1   
   123    44   128 1   
   124    49    53 1   
   125    50    53 1   
   126    51    53 1   
   127    52    53 1   
@<TRIPOS>SUBSTRUCTURE
     1 U3G         1 TEMP              0 ****  ****    0 ROOT
