@<TRIPOS>MOLECULE
U3H
   41    42     1     0     0
SMALL
No Charge or Current Charge


@<TRIPOS>ATOM
      1 N1          -4.0780     2.0230    -0.5440 nh         1 U3H      -0.704400
      2 C6          -4.2660     3.4060    -0.5980 c2         1 U3H       0.167000
      3 C2          -5.1230     1.0990    -0.9210 c6         1 U3H       0.623900
      4 O2          -4.6590     0.5100    -2.0960 oh         1 U3H      -0.730000
      5 N3          -6.3840     1.7190    -1.1990 ns         1 U3H      -0.556900
      6 C4          -6.6180     3.0550    -1.2240 c          1 U3H       0.582200
      7 O4          -7.7170     3.5070    -1.4910 o          1 U3H      -0.671000
      8 C5          -5.4700     3.9100    -0.9140 ce         1 U3H      -0.488200
      9 C1          -2.8200     1.5440     0.0690 c5         1 U3H       0.427500
     10 C7          -1.7120     1.6190    -1.0180 c5         1 U3H       0.108300
     11 O6          -1.8200     0.5970    -2.0330 oh         1 U3H      -0.672000
     12 C3          -0.4920     1.4140    -0.0890 c5         1 U3H      -0.127400
     13 C8          -0.9140     2.1740     1.2290 c5         1 U3H       0.166300
     14 O7          -2.3360     2.4270     1.0790 os         1 U3H      -0.493000
     15 C9          -0.2080     3.5330     1.5310 c3         1 U3H       0.201600
     16 O5           1.1540     3.5050     1.0770 os         1 U3H      -0.621400
     17 PA           2.0500     4.8330     1.2360 p5         1 U3H       1.489800
     18 O1A          3.4900     4.5610     0.9500 o          1 U3H      -0.892500
     19 O2A          1.9140     5.3730     2.6240 o          1 U3H      -0.892500
     20 O3A          1.3270     5.7910     0.2160 os         1 U3H      -0.712800
     21 PB           1.7700     5.6520    -1.2910 p5         1 U3H       1.547800
     22 O1B          1.7470     4.2630    -1.8480 o          1 U3H      -0.924500
     23 O2B          3.0970     6.3010    -1.5380 o          1 U3H      -0.924500
     24 O3B          0.6800     6.6240    -1.9050 os         1 U3H      -0.733800
     25 PG          -0.6730     6.0670    -2.4860 p5         1 U3H       1.373900
     26 O1G         -1.3680     5.1450    -1.5480 o          1 U3H      -0.952500
     27 O2G         -1.5580     7.2470    -2.6970 o          1 U3H      -0.952500
     28 O3G         -0.4580     5.4320    -3.8170 o          1 U3H      -0.952500
     29 H6          -3.4030     4.0550    -0.3710 h4         1 U3H       0.342000
     30 H2          -5.2240     0.2960    -0.1760 h3         1 U3H       0.051700
     31 H3          -7.1580     1.1150    -1.4270 hn         1 U3H       0.264500
     32 H5          -5.6430     4.9820    -0.9560 ha         1 U3H       0.237000
     33 H1          -2.9220     0.5280     0.4720 h2         1 U3H      -0.011300
     34 H2'         -1.6960     2.6330    -1.4530 h1         1 U3H       0.219700
     35 HA          -0.9920     0.6270    -2.5630 ho         1 U3H       0.431000
     36 H7          -0.3280     0.3520     0.1260 hc         1 U3H       0.079700
     37 H3'2         0.4310     1.7860    -0.5440 hc         1 U3H       0.079700
     38 H4          -0.7710     1.5150     2.0950 h1         1 U3H       0.010700
     39 H5'1        -0.2630     3.7240     2.6110 h1         1 U3H       0.066700
     40 H5'2        -0.7610     4.3340     1.0230 h1         1 U3H       0.066700
     41 HO5         -3.6860     0.6540    -2.0200 ho         1 U3H       0.476000
@<TRIPOS>BOND
     1     1     2 1   
     2     1     3 1   
     3     1     9 1   
     4     2     8 2   
     5     2    29 1   
     6     3     4 1   
     7     3     5 1   
     8     3    30 1   
     9     4    41 1   
    10     5     6 1   
    11     5    31 1   
    12     6     7 2   
    13     6     8 1   
    14     8    32 1   
    15     9    10 1   
    16     9    14 1   
    17     9    33 1   
    18    10    11 1   
    19    10    12 1   
    20    10    34 1   
    21    11    35 1   
    22    12    13 1   
    23    12    36 1   
    24    12    37 1   
    25    13    14 1   
    26    13    15 1   
    27    13    38 1   
    28    15    16 1   
    29    15    39 1   
    30    15    40 1   
    31    16    17 1   
    32    17    18 1   
    33    17    19 1   
    34    17    20 1   
    35    20    21 1   
    36    21    22 1   
    37    21    23 1   
    38    21    24 1   
    39    24    25 1   
    40    25    26 1   
    41    25    27 1   
    42    25    28 1   
@<TRIPOS>SUBSTRUCTURE
     1 U3H         1 TEMP              0 ****  ****    0 ROOT
