@<TRIPOS>MOLECULE
U3H
   41    42     1     0     0
SMALL
bcc


@<TRIPOS>ATOM
      1 N1          -3.8490     2.0860    -0.5560 nh         1 U3H      -0.704400
      2 C6          -3.9260     3.4120    -0.8120 c2         1 U3H       0.217000
      3 C2          -4.9670     1.2270    -0.8450 c6         1 U3H       0.600700
      4 O2          -4.8190     0.5730    -2.0740 oh         1 U3H      -0.667800
      5 N3          -6.1840     1.9740    -0.7380 ns         1 U3H      -0.623900
      6 C4          -6.3330     3.2970    -1.0610 c          1 U3H       0.724700
      7 O4          -7.4490     3.7900    -1.2090 o          1 U3H      -0.746500
      8 C5          -5.0900     4.0280    -1.1240 ce         1 U3H      -0.438200
      9 C1          -2.5920     1.4660    -0.2240 c5         1 U3H       0.404300
     10 C7          -1.4350     1.7360    -1.1930 c5         1 U3H       0.085100
     11 O6          -1.4900     0.9440    -2.3510 oh         1 U3H      -0.549800
     12 C3          -0.2300     1.5180    -0.2910 c5         1 U3H      -0.127400
     13 C8          -0.7260     2.0100     1.0670 c5         1 U3H       0.143100
     14 O7          -2.1570     1.9230     1.0310 os         1 U3H      -0.446600
     15 C9          -0.3580     3.4520     1.3770 c3         1 U3H       0.178400
     16 O5           1.0480     3.5110     1.5160 os         1 U3H      -0.598200
     17 PA           1.7890     4.9690     1.6120 p5         1 U3H       1.489800
     18 O1A          3.2540     4.6710     1.5340 o          1 U3H      -0.892500
     19 O2A          1.2240     5.7350     2.7720 o          1 U3H      -0.892500
     20 O3A          1.2670     5.7520     0.2850 os         1 U3H      -0.712800
     21 PB           1.6810     5.4760    -1.3000 p5         1 U3H       1.547800
     22 O1B          1.7570     3.9990    -1.5450 o          1 U3H      -0.924500
     23 O2B          2.8880     6.3220    -1.6000 o          1 U3H      -0.924500
     24 O3B          0.4380     6.1870    -2.0210 os         1 U3H      -0.733800
     25 PG          -1.2140     5.7430    -2.2330 p5         1 U3H       1.373900
     26 O1G         -1.7660     5.5890    -0.8170 o          1 U3H      -0.952500
     27 O2G         -1.7280     6.9770    -2.9640 o          1 U3H      -0.952500
     28 O3G         -1.1900     4.4750    -3.0700 o          1 U3H      -0.952500
     29 H6          -3.0090     4.0030    -0.7540 h4         1 U3H       0.292000
     30 H2          -5.0010     0.4190    -0.1120 h3         1 U3H       0.051700
     31 H3          -7.0290     1.4240    -0.6870 hn         1 U3H       0.264500
     32 H5          -5.1010     5.0880    -1.3240 ha         1 U3H       0.187000
     33 H1          -2.7820     0.3830    -0.1900 h2         1 U3H      -0.011300
     34 H2'         -1.4480     2.7710    -1.5500 h1         1 U3H       0.219700
     35 HA          -1.4350     0.0180    -2.0940 ho         1 U3H       0.332000
     36 H7           0.0240     0.4540    -0.2450 hc         1 U3H       0.079700
     37 H3'2         0.6400     2.0770    -0.6350 hc         1 U3H       0.079700
     38 H4          -0.3610     1.3670     1.8760 h1         1 U3H       0.010700
     39 H5'1        -0.8520     3.7540     2.3100 h1         1 U3H       0.066700
     40 H5'2        -0.7160     4.1090     0.5770 h1         1 U3H       0.066700
     41 HO5         -4.6360     1.2220    -2.7650 ho         1 U3H       0.437000
@<TRIPOS>BOND
     1     1     2 1   
     2     1     3 1   
     3     1     9 1   
     4     2     8 2   
     5     2    29 1   
     6     3     4 1   
     7     3     5 1   
     8     3    30 1   
     9     4    41 1   
    10     5     6 1   
    11     5    31 1   
    12     6     7 2   
    13     6     8 1   
    14     8    32 1   
    15     9    10 1   
    16     9    14 1   
    17     9    33 1   
    18    10    11 1   
    19    10    12 1   
    20    10    34 1   
    21    11    35 1   
    22    12    13 1   
    23    12    36 1   
    24    12    37 1   
    25    13    14 1   
    26    13    15 1   
    27    13    38 1   
    28    15    16 1   
    29    15    39 1   
    30    15    40 1   
    31    16    17 1   
    32    17    18 1   
    33    17    19 1   
    34    17    20 1   
    35    20    21 1   
    36    21    22 1   
    37    21    23 1   
    38    21    24 1   
    39    24    25 1   
    40    25    26 1   
    41    25    27 1   
    42    25    28 1   
@<TRIPOS>SUBSTRUCTURE
     1 U3H         1 TEMP              0 ****  ****    0 ROOT
