@<TRIPOS>MOLECULE
U3I
   58    61     1     0     0
SMALL
No Charge or Current Charge


@<TRIPOS>ATOM
      1 C1         -14.3500    26.4190    36.1300 ca         1 U3I      -0.225000
      2 C2         -15.1870    27.4250    36.6810 ca         1 U3I       0.196100
      3 C3         -16.5850    27.3390    36.5230 ca         1 U3I      -0.148000
      4 C12        -19.6360    23.9190    34.2710 c6         1 U3I       0.042700
      5 C13        -20.3160    23.1060    35.4020 c6         1 U3I      -0.083400
      6 C14        -21.5900    22.3880    34.8960 c6         1 U3I      -0.164400
      7 C15        -22.5320    23.3040    34.1080 c          1 U3I       0.578000
      8 C17        -20.6490    24.7490    33.4280 c          1 U3I       0.551000
      9 C20        -13.3060    28.6870    37.7290 c3         1 U3I       0.187300
     10 C21        -13.0510    30.2180    38.0310 c6         1 U3I       0.189500
     11 C22        -13.0300    27.7400    38.9260 c3         1 U3I      -0.122100
     12 C24        -12.5960    30.9550    35.7040 c6         1 U3I       0.167800
     13 C25        -11.1050    31.2410    36.0250 c6         1 U3I      -0.112400
     14 C26        -10.6090    30.3810    37.2130 c6         1 U3I      -0.073400
     15 C27        -11.5670    30.5170    38.4240 c6         1 U3I      -0.104400
     16 C29        -14.3760    33.4330    36.2910 c3         1 U3I      -0.090100
     17 C4         -17.1320    26.2500    35.8290 ca         1 U3I      -0.038300
     18 C5         -16.3030    25.2760    35.3040 ca         1 U3I      -0.210600
     19 C6         -14.9100    25.3280    35.4340 ca         1 U3I       0.008000
     20 C7         -18.6020    25.9630    35.5490 c5         1 U3I       0.142300
     21 C9         -17.1340    24.2620    34.6350 c          1 U3I       0.600600
     22 N16        -21.9650    24.3740    33.4760 ns         1 U3I      -0.485500
     23 N23        -13.4720    31.1280    36.9060 n3         1 U3I      -0.726600
     24 N8         -18.4630    24.6810    34.7850 n          1 U3I      -0.411800
     25 O10        -16.7480    23.2520    34.0650 o          1 U3I      -0.541000
     26 O11        -14.6960    28.5210    37.3660 os         1 U3I      -0.339100
     27 O18        -20.3050    25.6780    32.7150 o          1 U3I      -0.499000
     28 O19        -23.7380    23.1270    34.0810 o          1 U3I      -0.513000
     29 H1         -13.2700    26.4620    36.2290 ha         1 U3I       0.121000
     30 H2         -17.2290    28.1090    36.9380 ha         1 U3I       0.134000
     31 H3         -19.2640    23.1840    33.5420 h1         1 U3I       0.108700
     32 H4         -19.6090    22.3760    35.8220 hc         1 U3I       0.063700
     33 H5         -20.5910    23.7820    36.2240 hc         1 U3I       0.063700
     34 H6         -22.1440    21.8710    35.6900 hc         1 U3I       0.083200
     35 H7         -21.2630    21.6190    34.1840 hc         1 U3I       0.083200
     36 H8         -12.6570    28.4020    36.8940 h1         1 U3I       0.052700
     37 H9         -13.6690    30.4410    38.9140 h1         1 U3I       0.067700
     38 H10        -11.9590    27.6970    39.1510 hc         1 U3I       0.047700
     39 H11        -13.5580    28.0870    39.8220 hc         1 U3I       0.047700
     40 H12        -13.3580    26.7170    38.7120 hc         1 U3I       0.047700
     41 H13        -12.9190    31.6050    34.8780 h1         1 U3I       0.051200
     42 H14        -12.6800    29.9280    35.3200 h1         1 U3I       0.051200
     43 H15        -10.4910    31.0380    35.1380 hc         1 U3I       0.045200
     44 H16        -10.9690    32.3070    36.2540 hc         1 U3I       0.045200
     45 H17        -10.5360    29.3290    36.9060 hc         1 U3I       0.040200
     46 H18         -9.5940    30.6890    37.5010 hc         1 U3I       0.040200
     47 H19        -11.2360    29.8620    39.2390 hc         1 U3I       0.047200
     48 H20        -11.4910    31.5340    38.8310 hc         1 U3I       0.047200
     49 H21        -12.7170    33.0100    37.6000 h1         1 U3I       0.026700
     50 H22        -14.2950    32.5530    38.2390 h1         1 U3I       0.026700
     51 H23        -14.6140    34.4070    36.7320 hc         1 U3I       0.038033
     52 H24        -13.7360    33.6080    35.4190 hc         1 U3I       0.038033
     53 H25        -15.3120    32.9710    35.9550 hc         1 U3I       0.038033
     54 H26        -14.2780    24.5500    35.0090 ha         1 U3I       0.131000
     55 H27        -19.0600    26.7580    34.9470 h1         1 U3I       0.064200
     56 H28        -19.1730    25.8310    36.4770 h1         1 U3I       0.064200
     57 H29        -22.6020    24.9510    32.9470 hn         1 U3I       0.329500
     58 C28        -13.6730    32.5410    37.3330 c3         1 U3I       0.180800
@<TRIPOS>BOND
     1     1     2 ar  
     2     1    19 ar  
     3     1    29 1   
     4     2     3 ar  
     5     2    26 1   
     6     3    17 ar  
     7     3    30 1   
     8     4     5 1   
     9     4     8 1   
    10     4    24 1   
    11     4    31 1   
    12     5     6 1   
    13     5    32 1   
    14     5    33 1   
    15     6     7 1   
    16     6    34 1   
    17     6    35 1   
    18     7    22 1   
    19     7    28 2   
    20     8    22 1   
    21     8    27 2   
    22     9    10 1   
    23     9    11 1   
    24     9    26 1   
    25     9    36 1   
    26    10    15 1   
    27    10    23 1   
    28    10    37 1   
    29    11    38 1   
    30    11    39 1   
    31    11    40 1   
    32    12    13 1   
    33    12    23 1   
    34    12    41 1   
    35    12    42 1   
    36    13    14 1   
    37    13    43 1   
    38    13    44 1   
    39    14    15 1   
    40    14    45 1   
    41    14    46 1   
    42    15    47 1   
    43    15    48 1   
    44    16    51 1   
    45    16    52 1   
    46    16    53 1   
    47    16    58 1   
    48    17    18 ar  
    49    17    20 1   
    50    18    19 ar  
    51    18    21 1   
    52    19    54 1   
    53    20    24 1   
    54    20    55 1   
    55    20    56 1   
    56    21    24 1   
    57    21    25 2   
    58    22    57 1   
    59    23    58 1   
    60    49    58 1   
    61    50    58 1   
@<TRIPOS>SUBSTRUCTURE
     1 U3I         1 TEMP              0 ****  ****    0 ROOT
