@<TRIPOS>MOLECULE
U3I
   58    61     1     0     0
SMALL
abcg2


@<TRIPOS>ATOM
      1 C1         -14.2450    26.4110    36.1380 ca         1 U3I      -0.225000
      2 C2         -15.0290    27.2980    36.8920 ca         1 U3I       0.196100
      3 C3         -16.4240    27.1630    36.9120 ca         1 U3I      -0.148000
      4 C12        -19.5340    24.0610    34.5220 c6         1 U3I       0.042700
      5 C13        -20.5760    23.6400    35.5500 c6         1 U3I      -0.083400
      6 C14        -21.7270    22.9480    34.8410 c6         1 U3I      -0.164400
      7 C15        -22.3140    23.7720    33.7280 c          1 U3I       0.578000
      8 C17        -20.1550    24.9650    33.4650 c          1 U3I       0.551000
      9 C20        -13.1460    28.5730    37.7200 c3         1 U3I       0.187300
     10 C21        -13.0420    30.0840    37.9650 c6         1 U3I       0.189500
     11 C22        -12.5500    27.7240    38.8290 c3         1 U3I      -0.122100
     12 C24        -12.6370    30.7990    35.6800 c6         1 U3I       0.167800
     13 C25        -11.2310    31.2900    36.0160 c6         1 U3I      -0.112400
     14 C26        -10.6620    30.4980    37.1870 c6         1 U3I      -0.073400
     15 C27        -11.6340    30.5450    38.3610 c6         1 U3I      -0.104400
     16 C29        -15.0850    32.6310    36.1050 c3         1 U3I      -0.090100
     17 C4         -16.9970    26.1630    36.1610 ca         1 U3I      -0.038300
     18 C5         -16.2230    25.3030    35.3970 ca         1 U3I      -0.210600
     19 C6         -14.8450    25.4160    35.3820 ca         1 U3I       0.008000
     20 C7         -18.4400    25.7990    35.9970 c5         1 U3I       0.142300
     21 C9         -17.1050    24.3720    34.6810 c          1 U3I       0.600600
     22 N16        -21.4710    24.7060    33.1560 ns         1 U3I      -0.485500
     23 N23        -13.5630    30.8070    36.8070 n3         1 U3I      -0.726600
     24 N8         -18.3730    24.6710    35.0870 n          1 U3I      -0.411800
     25 O10        -16.7960    23.5020    33.8860 o          1 U3I      -0.541000
     26 O11        -14.5480    28.3090    37.6200 os         1 U3I      -0.339100
     27 O18        -19.5440    25.8440    32.9060 o          1 U3I      -0.499000
     28 O19        -23.4450    23.6460    33.3210 o          1 U3I      -0.513000
     29 H1         -13.1670    26.4850    36.1290 ha         1 U3I       0.121000
     30 H2         -17.0220    27.8460    37.5040 ha         1 U3I       0.134000
     31 H3         -19.1990    23.1610    33.9910 h1         1 U3I       0.108700
     32 H4         -20.1200    22.9620    36.2700 hc         1 U3I       0.063700
     33 H5         -20.9460    24.5060    36.1050 hc         1 U3I       0.063700
     34 H6         -22.5290    22.6950    35.5330 hc         1 U3I       0.083200
     35 H7         -21.3830    22.0060    34.4000 hc         1 U3I       0.083200
     36 H8         -12.6550    28.3220    36.7760 h1         1 U3I       0.052700
     37 H9         -13.7080    30.2980    38.8080 h1         1 U3I       0.067700
     38 H10        -11.4640    27.8040    38.8400 hc         1 U3I       0.047700
     39 H11        -12.9260    28.0290    39.8070 hc         1 U3I       0.047700
     40 H12        -12.7920    26.6700    38.6850 hc         1 U3I       0.047700
     41 H13        -13.0640    31.3940    34.8710 h1         1 U3I       0.051200
     42 H14        -12.5680    29.7810    35.2840 h1         1 U3I       0.051200
     43 H15        -10.5930    31.1960    35.1340 hc         1 U3I       0.045200
     44 H16        -11.2530    32.3540    36.2720 hc         1 U3I       0.045200
     45 H17        -10.4850    29.4610    36.8800 hc         1 U3I       0.040200
     46 H18         -9.6910    30.8970    37.4890 hc         1 U3I       0.040200
     47 H19        -11.2600    29.9680    39.2090 hc         1 U3I       0.047200
     48 H20        -11.7090    31.5780    38.7160 hc         1 U3I       0.047200
     49 H21        -13.2890    32.8840    37.2610 h1         1 U3I       0.026700
     50 H22        -14.5840    32.0580    38.0960 h1         1 U3I       0.026700
     51 H23        -15.5140    33.5790    36.4320 hc         1 U3I       0.038033
     52 H24        -14.6360    32.8040    35.1260 hc         1 U3I       0.038033
     53 H25        -15.8980    31.9150    35.9820 hc         1 U3I       0.038033
     54 H26        -14.2340    24.7410    34.7950 ha         1 U3I       0.131000
     55 H27        -19.0240    26.6230    35.5770 h1         1 U3I       0.064200
     56 H28        -18.8980    25.5210    36.9500 h1         1 U3I       0.064200
     57 H29        -21.8710    25.2720    32.4140 hn         1 U3I       0.329500
     58 C28        -14.0790    32.1300    37.1290 c3         1 U3I       0.180800
@<TRIPOS>BOND
     1     1     2 ar  
     2     1    19 ar  
     3     1    29 1   
     4     2     3 ar  
     5     2    26 1   
     6     3    17 ar  
     7     3    30 1   
     8     4     5 1   
     9     4     8 1   
    10     4    24 1   
    11     4    31 1   
    12     5     6 1   
    13     5    32 1   
    14     5    33 1   
    15     6     7 1   
    16     6    34 1   
    17     6    35 1   
    18     7    22 1   
    19     7    28 2   
    20     8    22 1   
    21     8    27 2   
    22     9    10 1   
    23     9    11 1   
    24     9    26 1   
    25     9    36 1   
    26    10    15 1   
    27    10    23 1   
    28    10    37 1   
    29    11    38 1   
    30    11    39 1   
    31    11    40 1   
    32    12    13 1   
    33    12    23 1   
    34    12    41 1   
    35    12    42 1   
    36    13    14 1   
    37    13    43 1   
    38    13    44 1   
    39    14    15 1   
    40    14    45 1   
    41    14    46 1   
    42    15    47 1   
    43    15    48 1   
    44    16    51 1   
    45    16    52 1   
    46    16    53 1   
    47    16    58 1   
    48    17    18 ar  
    49    17    20 1   
    50    18    19 ar  
    51    18    21 1   
    52    19    54 1   
    53    20    24 1   
    54    20    55 1   
    55    20    56 1   
    56    21    24 1   
    57    21    25 2   
    58    22    57 1   
    59    23    58 1   
    60    49    58 1   
    61    50    58 1   
@<TRIPOS>SUBSTRUCTURE
     1 U3I         1 TEMP              0 ****  ****    0 ROOT
