@<TRIPOS>MOLECULE
U3J
   39    41     1     0     0
SMALL
No Charge or Current Charge


@<TRIPOS>ATOM
      1 N1         165.9580   183.1550   131.2100 ns         1 U3J      -0.484500
      2 C8         161.7550   183.8820   132.6830 cc         1 U3J       0.481400
      3 N3         163.9700   182.7820   130.1080 ns         1 U3J      -0.492600
      4 C6         165.3870   183.6350   132.3700 c          1 U3J       0.531500
      5 N7         162.9410   184.0740   133.2680 nd         1 U3J      -0.625000
      6 C2         165.3360   182.7230   130.0700 c          1 U3J       0.630000
      7 C4         163.2550   183.2410   131.1990 cc         1 U3J      -0.029400
      8 C5         163.8830   183.6700   132.3310 cd         1 U3J       0.109500
      9 N9         161.9020   183.3620   131.4070 na         1 U3J      -0.177500
     10 O6         166.0750   183.9890   133.3180 o          1 U3J      -0.530000
     11 C1         160.8250   182.9810   130.4880 c5         1 U3J       0.276300
     12 C7         159.6980   181.9920   130.9890 c5         1 U3J       0.076300
     13 C3         158.4570   182.5840   130.2510 c5         1 U3J       0.143300
     14 C9         158.7570   184.1160   130.2860 c5         1 U3J       0.134300
     15 C10        158.4040   184.8740   131.6120 c3         1 U3J       0.234600
     16 O1A        158.2890   187.1200   129.5950 o          1 U3J      -0.888000
     17 O1B        157.9830   190.1730   132.8690 o          1 U3J      -0.947833
     18 O2         159.4950   181.9590   132.4150 oh         1 U3J      -0.661000
     19 O2A        159.9570   188.3460   130.9720 o          1 U3J      -0.888000
     20 O2B        157.0390   189.9420   130.6200 o          1 U3J      -0.947833
     21 O3         157.2470   182.1960   130.9020 oh         1 U3J      -0.651000
     22 O3A        157.6180   187.8480   131.9700 os         1 U3J      -0.706800
     23 O3B        155.7450   189.3410   132.5550 o          1 U3J      -0.947833
     24 O4         160.1760   184.1740   129.9890 os         1 U3J      -0.392000
     25 O5         159.1880   186.0700   131.7530 os         1 U3J      -0.553400
     26 PA         158.7770   187.4260   130.9760 p5         1 U3J       1.448800
     27 PB         157.1200   189.3440   131.9810 p5         1 U3J       1.347900
     28 H1         166.9650   183.1170   131.1980 hn         1 U3J       0.321500
     29 H2         160.7860   184.0980   133.1170 h5         1 U3J       0.132100
     30 H3         163.5080   182.4700   129.2600 hn         1 U3J       0.458000
     31 H4         161.3300   182.5060   129.6400 h2         1 U3J       0.037700
     32 H5         159.9010   180.9740   130.6330 h1         1 U3J       0.006700
     33 H6         158.4420   182.2390   129.2080 h1         1 U3J       0.017700
     34 H7         158.2130   184.6130   129.4720 h1         1 U3J       0.145700
     35 H8         157.3320   185.1100   131.6060 h1         1 U3J       0.016200
     36 H9         158.5760   184.2300   132.4800 h1         1 U3J       0.016200
     37 H11        160.0440   181.2210   132.7740 ho         1 U3J       0.485000
     38 H13        157.5440   181.9360   131.8070 ho         1 U3J       0.471000
     39 O7         165.9470   182.3180   129.1010 o          1 U3J      -0.602000
@<TRIPOS>BOND
     1     1     4 1   
     2     1     6 1   
     3     1    28 1   
     4     2     5 2   
     5     2     9 1   
     6     2    29 1   
     7     3     6 1   
     8     3     7 1   
     9     3    30 1   
    10     4     8 1   
    11     4    10 2   
    12     5     8 1   
    13     6    39 2   
    14     7     8 2   
    15     7     9 1   
    16     9    11 1   
    17    11    12 1   
    18    11    24 1   
    19    11    31 1   
    20    12    13 1   
    21    12    18 1   
    22    12    32 1   
    23    13    14 1   
    24    13    21 1   
    25    13    33 1   
    26    14    15 1   
    27    14    24 1   
    28    14    34 1   
    29    15    25 1   
    30    15    35 1   
    31    15    36 1   
    32    16    26 1   
    33    17    27 1   
    34    18    37 1   
    35    19    26 1   
    36    20    27 1   
    37    21    38 1   
    38    22    26 1   
    39    22    27 1   
    40    23    27 1   
    41    25    26 1   
@<TRIPOS>SUBSTRUCTURE
     1 U3J         1 TEMP              0 ****  ****    0 ROOT
