@<TRIPOS>MOLECULE
U3J
   39    41     1     0     0
SMALL
abcg2


@<TRIPOS>ATOM
      1 N1         165.9390   182.5070   131.7640 ns         1 U3J      -0.484500
      2 C8         162.0110   184.2420   132.6720 cc         1 U3J       0.481400
      3 N3         164.0780   182.5650   130.3780 ns         1 U3J      -0.492600
      4 C6         165.3610   183.1580   132.8560 c          1 U3J       0.531500
      5 N7         163.0880   184.1640   133.3870 nd         1 U3J      -0.625000
      6 C2         165.3880   182.1830   130.5430 c          1 U3J       0.630000
      7 C4         163.4310   183.2130   131.3830 cc         1 U3J      -0.029400
      8 C5         163.9960   183.5140   132.5950 cd         1 U3J       0.109500
      9 N9         162.1650   183.6820   131.4220 na         1 U3J      -0.177500
     10 O6         165.9970   183.3640   133.8690 o          1 U3J      -0.530000
     11 C1         161.1440   183.5600   130.4000 c5         1 U3J       0.276300
     12 C7         160.2510   182.3230   130.5890 c5         1 U3J       0.076300
     13 C3         158.9660   182.8440   129.9380 c5         1 U3J       0.143300
     14 C9         158.9370   184.3230   130.3490 c5         1 U3J       0.134300
     15 C10        158.1890   184.6420   131.6340 c3         1 U3J       0.234600
     16 O1A        155.9050   186.6940   132.4630 o          1 U3J      -0.888000
     17 O1B        158.1470   190.3170   130.3260 o          1 U3J      -0.947833
     18 O2         160.0180   182.0210   131.9310 oh         1 U3J      -0.661000
     19 O2A        156.8220   186.8930   130.0530 o          1 U3J      -0.888000
     20 O2B        155.8180   189.8790   131.3190 o          1 U3J      -0.947833
     21 O3         157.7930   182.1850   130.2980 oh         1 U3J      -0.651000
     22 O3A        157.8140   188.3590   131.9500 os         1 U3J      -0.706800
     23 O3B        157.7190   190.7260   132.8280 o          1 U3J      -0.947833
     24 O4         160.3180   184.6810   130.4660 os         1 U3J      -0.392000
     25 O5         158.3170   186.0070   131.9490 os         1 U3J      -0.553400
     26 PA         157.0480   187.0180   131.5380 p5         1 U3J       1.448800
     27 PB         157.3180   189.9880   131.5590 p5         1 U3J       1.347900
     28 H1         166.9050   182.2240   131.8780 hn         1 U3J       0.321500
     29 H2         161.0870   184.7080   132.9740 h5         1 U3J       0.132100
     30 H3         163.6320   182.3260   129.5030 hn         1 U3J       0.458000
     31 H4         161.6570   183.5150   129.4310 h2         1 U3J       0.037700
     32 H5         160.6670   181.4680   130.0440 h1         1 U3J       0.006700
     33 H6         159.1280   182.8050   128.8510 h1         1 U3J       0.017700
     34 H7         158.5090   184.9360   129.5520 h1         1 U3J       0.145700
     35 H8         157.1430   184.3370   131.5160 h1         1 U3J       0.016200
     36 H9         158.5930   184.0610   132.4670 h1         1 U3J       0.016200
     37 H11        160.7390   181.4750   132.2610 ho         1 U3J       0.485000
     38 H13        157.7790   181.3230   129.8690 ho         1 U3J       0.471000
     39 O7         166.0090   181.6030   129.6780 o          1 U3J      -0.602000
@<TRIPOS>BOND
     1     1     4 1   
     2     1     6 1   
     3     1    28 1   
     4     2     5 2   
     5     2     9 1   
     6     2    29 1   
     7     3     6 1   
     8     3     7 1   
     9     3    30 1   
    10     4     8 1   
    11     4    10 2   
    12     5     8 1   
    13     6    39 2   
    14     7     8 2   
    15     7     9 1   
    16     9    11 1   
    17    11    12 1   
    18    11    24 1   
    19    11    31 1   
    20    12    13 1   
    21    12    18 1   
    22    12    32 1   
    23    13    14 1   
    24    13    21 1   
    25    13    33 1   
    26    14    15 1   
    27    14    24 1   
    28    14    34 1   
    29    15    25 1   
    30    15    35 1   
    31    15    36 1   
    32    16    26 1   
    33    17    27 1   
    34    18    37 1   
    35    19    26 1   
    36    20    27 1   
    37    21    38 1   
    38    22    26 1   
    39    22    27 1   
    40    23    27 1   
    41    25    26 1   
@<TRIPOS>SUBSTRUCTURE
     1 U3J         1 TEMP              0 ****  ****    0 ROOT
