@<TRIPOS>MOLECULE
U3K
   33    34     1     0     0
SMALL
No Charge or Current Charge


@<TRIPOS>ATOM
      1 C01          8.8800    -2.5630     6.4460 c3         1 U3K      -0.121400
      2 C02          7.7350    -3.0910     5.6340 cc         1 U3K       0.136300
      3 C03          7.1210    -2.5940     4.5170 cd         1 U3K      -0.190000
      4 C04          6.0980    -3.5010     4.1730 cd         1 U3K      -0.185000
      5 C05          6.1250    -4.5100     5.0980 cc         1 U3K       0.129300
      6 C07          5.2720    -5.7540     5.2300 c3         1 U3K       0.145500
      7 C09          4.0590    -7.3160     6.7140 c3         1 U3K       0.159100
      8 C10          3.8280    -4.8680     7.0770 c3         1 U3K       0.216100
      9 C11          2.5580    -4.6260     6.2580 ca         1 U3K      -0.122300
     10 C12          2.5400    -3.6490     5.2420 ca         1 U3K      -0.102000
     11 C13          1.3720    -3.4200     4.4940 ca         1 U3K      -0.113000
     12 C14          0.2080    -4.1600     4.7630 ca         1 U3K      -0.107000
     13 C15          0.2130    -5.1260     5.7820 ca         1 U3K      -0.113000
     14 C16          1.3810    -5.3550     6.5300 ca         1 U3K      -0.102000
     15 N08          4.6860    -5.9810     6.5810 n3         1 U3K      -0.720600
     16 O06          7.1400    -4.2750     6.0040 os         1 U3K      -0.226000
     17 H1           8.5780    -2.4070     7.4880 hc         1 U3K       0.052700
     18 H2           9.7200    -3.2680     6.4350 hc         1 U3K       0.052700
     19 H3           9.2350    -1.6060     6.0470 hc         1 U3K       0.052700
     20 H4           7.3800    -1.6770     3.9990 ha         1 U3K       0.138000
     21 H5           5.4130    -3.4200     3.3350 ha         1 U3K       0.137000
     22 H6           4.4730    -5.7040     4.4770 h1         1 U3K       0.050700
     23 H7           5.9050    -6.6090     4.9560 h1         1 U3K       0.050700
     24 H8           3.6910    -7.4740     7.7360 h1         1 U3K       0.032700
     25 H9           3.2150    -7.4260     6.0200 h1         1 U3K       0.032700
     26 H10          4.7870    -8.1080     6.4920 h1         1 U3K       0.032700
     27 H11          4.4060    -3.9340     7.1060 h1         1 U3K       0.062200
     28 H12          3.5330    -5.0670     8.1170 h1         1 U3K       0.062200
     29 H13          3.4320    -3.0640     5.0320 ha         1 U3K       0.112500
     30 H14          1.3680    -2.6670     3.7100 ha         1 U3K       0.112000
     31 H15         -0.6960    -3.9820     4.1850 ha         1 U3K       0.112000
     32 H16         -0.6890    -5.6960     5.9950 ha         1 U3K       0.112000
     33 H17          1.3730    -6.1020     7.3200 ha         1 U3K       0.112500
@<TRIPOS>BOND
     1     1     2 1   
     2     1    17 1   
     3     1    18 1   
     4     1    19 1   
     5     2     3 2   
     6     2    16 1   
     7     3     4 1   
     8     3    20 1   
     9     4     5 2   
    10     4    21 1   
    11     5     6 1   
    12     5    16 1   
    13     6    15 1   
    14     6    22 1   
    15     6    23 1   
    16     7    15 1   
    17     7    24 1   
    18     7    25 1   
    19     7    26 1   
    20     8     9 1   
    21     8    15 1   
    22     8    27 1   
    23     8    28 1   
    24     9    10 ar  
    25     9    14 ar  
    26    10    11 ar  
    27    10    29 1   
    28    11    12 ar  
    29    11    30 1   
    30    12    13 ar  
    31    12    31 1   
    32    13    14 ar  
    33    13    32 1   
    34    14    33 1   
@<TRIPOS>SUBSTRUCTURE
     1 U3K         1 TEMP              0 ****  ****    0 ROOT
