@<TRIPOS>MOLECULE
U3K
   33    34     1     0     0
SMALL
abcg2


@<TRIPOS>ATOM
      1 C01          9.0160    -2.8400     6.4960 c3         1 U3K      -0.121400
      2 C02          7.8250    -3.1530     5.6720 cc         1 U3K       0.136300
      3 C03          7.2320    -2.5210     4.6300 cd         1 U3K      -0.190000
      4 C04          6.1060    -3.3210     4.2610 cd         1 U3K      -0.185000
      5 C05          6.0980    -4.3820     5.1020 cc         1 U3K       0.129300
      6 C07          5.2260    -5.5820     5.1980 c3         1 U3K       0.145500
      7 C09          4.1270    -7.1140     6.6750 c3         1 U3K       0.159100
      8 C10          3.7840    -4.7280     6.9840 c3         1 U3K       0.216100
      9 C11          2.4850    -4.5900     6.2220 ca         1 U3K      -0.122300
     10 C12          2.3830    -3.7300     5.1310 ca         1 U3K      -0.102000
     11 C13          1.2020    -3.6330     4.4060 ca         1 U3K      -0.113000
     12 C14          0.1000    -4.3970     4.7660 ca         1 U3K      -0.107000
     13 C15          0.1840    -5.2500     5.8580 ca         1 U3K      -0.113000
     14 C16          1.3670    -5.3430     6.5790 ca         1 U3K      -0.102000
     15 N08          4.6770    -5.7840     6.5250 n3         1 U3K      -0.720600
     16 O06          7.1410    -4.2850     5.9610 os         1 U3K      -0.226000
     17 H1           8.7610    -2.7140     7.5500 hc         1 U3K       0.052700
     18 H2           9.7720    -3.6260     6.4330 hc         1 U3K       0.052700
     19 H3           9.4680    -1.9130     6.1480 hc         1 U3K       0.052700
     20 H4           7.5560    -1.5960     4.1800 ha         1 U3K       0.138000
     21 H5           5.3950    -3.1320     3.4720 ha         1 U3K       0.137000
     22 H6           4.4600    -5.4990     4.4120 h1         1 U3K       0.050700
     23 H7           5.8110    -6.4740     4.9510 h1         1 U3K       0.050700
     24 H8           3.7630    -7.2520     7.6940 h1         1 U3K       0.032700
     25 H9           3.2980    -7.3410     5.9900 h1         1 U3K       0.032700
     26 H10          4.9100    -7.8540     6.4990 h1         1 U3K       0.032700
     27 H11          4.3270    -3.7810     6.9490 h1         1 U3K       0.062200
     28 H12          3.5660    -4.9230     8.0370 h1         1 U3K       0.062200
     29 H13          3.2330    -3.1180     4.8530 ha         1 U3K       0.112500
     30 H14          1.1420    -2.9570     3.5620 ha         1 U3K       0.112000
     31 H15         -0.8220    -4.3220     4.2030 ha         1 U3K       0.112000
     32 H16         -0.6740    -5.8400     6.1530 ha         1 U3K       0.112000
     33 H17          1.4200    -6.0020     7.4390 ha         1 U3K       0.112500
@<TRIPOS>BOND
     1     1     2 1   
     2     1    17 1   
     3     1    18 1   
     4     1    19 1   
     5     2     3 2   
     6     2    16 1   
     7     3     4 1   
     8     3    20 1   
     9     4     5 2   
    10     4    21 1   
    11     5     6 1   
    12     5    16 1   
    13     6    15 1   
    14     6    22 1   
    15     6    23 1   
    16     7    15 1   
    17     7    24 1   
    18     7    25 1   
    19     7    26 1   
    20     8     9 1   
    21     8    15 1   
    22     8    27 1   
    23     8    28 1   
    24     9    10 ar  
    25     9    14 ar  
    26    10    11 ar  
    27    10    29 1   
    28    11    12 ar  
    29    11    30 1   
    30    12    13 ar  
    31    12    31 1   
    32    13    14 ar  
    33    13    32 1   
    34    14    33 1   
@<TRIPOS>SUBSTRUCTURE
     1 U3K         1 TEMP              0 ****  ****    0 ROOT
