@<TRIPOS>MOLECULE
U3L
   22    23     1     0     0
SMALL
abcg2


@<TRIPOS>ATOM
      1 C02         19.6310    17.2080   -13.3190 cc         1 U3L       0.025900
      2 C03         19.1070    17.2930   -14.5770 cd         1 U3L      -0.005600
      3 C04         17.9570    16.5360   -15.0910 cf         1 U3L       0.599500
      4 C06         16.0070    15.5120   -15.3070 c5         1 U3L       0.078800
      5 C07         16.7710    15.3370   -16.6380 c5         1 U3L       0.150800
      6 C10         20.7770    18.8920   -15.1620 cc         1 U3L       0.197700
      7 C12         21.3550    18.8420   -13.9280 cd         1 U3L      -0.348200
      8 C13         20.8050    17.9840   -12.9300 c          1 U3L       0.531500
      9 N05         16.9590    16.1590   -14.3830 n2         1 U3L      -0.559900
     10 N08         17.8920    16.2790   -16.4560 nu         1 U3L      -0.902400
     11 N09         19.7070    18.1480   -15.4820 na         1 U3L      -0.615000
     12 O01         19.1470    16.4010   -12.3630 oh         1 U3L      -0.491100
     13 O14         21.2450    17.8400   -11.7660 o          1 U3L      -0.594100
     14 BR11        21.4360    20.0190   -16.5320 br         1 U3L      -0.033700
     15 H062        15.1420    16.1700   -15.4270 h1         1 U3L       0.072700
     16 H061        15.6500    14.5690   -14.8940 h1         1 U3L       0.072700
     17 H072        16.1740    15.5980   -17.5090 h1         1 U3L       0.054200
     18 H071        17.1490    14.3190   -16.7590 h1         1 U3L       0.054200
     19 H121        22.2230    19.4430   -13.7000 ha         1 U3L       0.228000
     20 H081        18.7590    16.0370   -16.9190 hn         1 U3L       0.459000
     21 H091        19.2790    18.2460   -16.3930 hn         1 U3L       0.532000
     22 H1          19.7570    16.5400   -11.6050 ho         1 U3L       0.496000
@<TRIPOS>BOND
     1     1     2 2   
     2     1     8 1   
     3     1    12 1   
     4     2     3 1   
     5     2    11 1   
     6     3     9 2   
     7     3    10 1   
     8     4     5 1   
     9     4     9 1   
    10     4    15 1   
    11     4    16 1   
    12     5    10 1   
    13     5    17 1   
    14     5    18 1   
    15     6     7 2   
    16     6    11 1   
    17     6    14 1   
    18     7     8 1   
    19     7    19 1   
    20     8    13 2   
    21    10    20 1   
    22    11    21 1   
    23    12    22 1   
@<TRIPOS>SUBSTRUCTURE
     1 U3L         1 TEMP              0 ****  ****    0 ROOT
