@<TRIPOS>MOLECULE
U3L
   22    23     1     0     0
SMALL
No Charge or Current Charge


@<TRIPOS>ATOM
      1 C02         19.6760    17.1240   -13.4140 cc         1 U3L       0.025900
      2 C03         19.0930    17.2860   -14.6620 cd         1 U3L      -0.005600
      3 C04         17.9230    16.4980   -15.1250 cf         1 U3L       0.599500
      4 C06         15.9090    15.6530   -15.3520 c5         1 U3L       0.078800
      5 C07         16.7940    15.1520   -16.5280 c5         1 U3L       0.150800
      6 C10         20.7980    19.0890   -15.1600 cc         1 U3L       0.197700
      7 C12         21.3300    18.8900   -13.9150 cd         1 U3L      -0.348200
      8 C13         20.8310    17.9200   -12.9640 c          1 U3L       0.531500
      9 N05         16.8570    16.3170   -14.4210 n2         1 U3L      -0.559900
     10 N08         17.8760    16.1560   -16.4540 nu         1 U3L      -0.902400
     11 N09         19.7040    18.2810   -15.4800 na         1 U3L      -0.615000
     12 O01         19.2610    16.2080   -12.4960 oh         1 U3L      -0.491100
     13 O14         21.3470    17.7750   -11.8600 o          1 U3L      -0.594100
     14 Br11        21.4570    20.3560   -16.3880 br         1 U3L      -0.033700
     15 H062        15.1630    16.3790   -15.7050 h1         1 U3L       0.072700
     16 H061        15.3750    14.8260   -14.8650 h1         1 U3L       0.072700
     17 H072        16.2510    15.1600   -17.4840 h1         1 U3L       0.054200
     18 H071        17.1660    14.1330   -16.3460 h1         1 U3L       0.054200
     19 H121        22.1780    19.4670   -13.5700 ha         1 U3L       0.228000
     20 H081        18.8010    15.9570   -16.8340 hn         1 U3L       0.459000
     21 H091        19.2870    18.4290   -16.4020 hn         1 U3L       0.532000
     22 H1          19.8530    16.3180   -11.7150 ho         1 U3L       0.496000
@<TRIPOS>BOND
     1     1     2 2   
     2     1     8 1   
     3     1    12 1   
     4     2     3 1   
     5     2    11 1   
     6     3     9 2   
     7     3    10 1   
     8     4     5 1   
     9     4     9 1   
    10     4    15 1   
    11     4    16 1   
    12     5    10 1   
    13     5    17 1   
    14     5    18 1   
    15     6     7 2   
    16     6    11 1   
    17     6    14 1   
    18     7     8 1   
    19     7    19 1   
    20     8    13 2   
    21    10    20 1   
    22    11    21 1   
    23    12    22 1   
@<TRIPOS>SUBSTRUCTURE
     1 U3L         1 TEMP              0 ****  ****    0 ROOT
