@<TRIPOS>MOLECULE
U3M
   44    48     1     0     0
SMALL
No Charge or Current Charge


@<TRIPOS>ATOM
      1 N           -6.2000    -2.4070    -0.0200 nb         1 U3M      -0.667000
      2 C           -6.0000     0.1900     1.0660 ca         1 U3M      -0.055000
      3 O            1.1130     4.5910    -1.0020 o          1 U3M      -0.713500
      4 C1          -7.2010    -0.5320     1.1390 ca         1 U3M      -0.182000
      5 C10         -1.2060     1.8200    -0.5960 ca         1 U3M      -0.053000
      6 C11          0.0170     2.5220    -0.6910 ca         1 U3M      -0.143600
      7 C12          0.0330     4.0230    -0.9240 c          1 U3M       0.714600
      8 C13         -0.0120    -0.2670    -0.2750 ca         1 U3M      -0.100000
      9 C14          1.2340     0.3970    -0.3620 cp         1 U3M      -0.094000
     10 C15          1.2250     1.7980    -0.5720 ca         1 U3M      -0.051000
     11 C16          2.5210    -0.3590    -0.2360 cp         1 U3M       0.010000
     12 C17          2.6550    -1.6650    -0.7670 ca         1 U3M      -0.093000
     13 C18          3.8600    -2.3740    -0.6500 ca         1 U3M      -0.111000
     14 C19          3.6430     0.2070     0.4200 ca         1 U3M      -0.083000
     15 C2          -7.2580    -1.8200     0.5860 ca         1 U3M       0.336900
     16 C20          4.8600    -0.4850     0.5510 ca         1 U3M       0.272000
     17 C21          4.9580    -1.7910     0.0060 ca         1 U3M      -0.091000
     18 C22          7.0620    -0.5860     1.3040 ca         1 U3M       0.339900
     19 C23          7.2360    -1.8790     0.7890 ca         1 U3M      -0.184000
     20 C24          6.1670    -2.4990     0.1260 ca         1 U3M      -0.062000
     21 C3          -5.0340    -1.7210    -0.0970 ca         1 U3M       0.257000
     22 C4          -4.8970    -0.4140     0.4360 ca         1 U3M      -0.075000
     23 C5          -3.9180    -2.3070    -0.7200 ca         1 U3M      -0.100000
     24 C6          -2.6960    -1.6180    -0.8130 ca         1 U3M      -0.091000
     25 C7          -2.5470    -0.3130    -0.2860 cp         1 U3M       0.007000
     26 C8          -3.6730     0.2750     0.3410 ca         1 U3M      -0.094000
     27 C9          -1.2440     0.4190    -0.3870 cp         1 U3M      -0.095000
     28 N1           5.9010     0.1010     1.1900 nb         1 U3M      -0.652000
     29 O1          -1.0340     4.6110    -1.0230 o          1 U3M      -0.713500
     30 H           -5.9300     1.1910     1.4870 ha         1 U3M       0.120000
     31 H1          -8.0780    -0.1050     1.6160 ha         1 U3M       0.114000
     32 H6          -2.1420     2.3630    -0.7000 ha         1 U3M       0.135000
     33 H7          -0.0240    -1.3370    -0.0870 ha         1 U3M       0.092000
     34 H8           2.1730     2.3240    -0.6590 ha         1 U3M       0.138000
     35 H9           1.8200    -2.1270    -1.2880 ha         1 U3M       0.116000
     36 H10          3.9380    -3.3750    -1.0700 ha         1 U3M       0.104000
     37 H11          3.5660     1.2010     0.8520 ha         1 U3M       0.147000
     38 H2          -8.1770    -2.4030     0.6290 h4         1 U3M       0.005100
     39 H12          7.8750    -0.0810     1.8240 h4         1 U3M       0.009100
     40 H13          8.1880    -2.3890     0.9060 ha         1 U3M       0.111000
     41 H14          6.2740    -3.5020    -0.2820 ha         1 U3M       0.108000
     42 H3          -4.0020    -3.3060    -1.1380 ha         1 U3M       0.120000
     43 H4          -1.8590    -2.0990    -1.3130 ha         1 U3M       0.116000
     44 H5          -3.5880     1.2710     0.7700 ha         1 U3M       0.131000
@<TRIPOS>BOND
     1     1    15 ar  
     2     1    21 ar  
     3     2     4 ar  
     4     2    22 ar  
     5     2    30 1   
     6     3     7 1   
     7     4    15 ar  
     8     4    31 1   
     9     5     6 ar  
    10     5    27 ar  
    11     5    32 1   
    12     6     7 1   
    13     6    10 ar  
    14     7    29 1   
    15     8     9 ar  
    16     8    27 ar  
    17     8    33 1   
    18     9    10 ar  
    19     9    11 1   
    20    10    34 1   
    21    11    12 ar  
    22    11    14 ar  
    23    12    13 ar  
    24    12    35 1   
    25    13    17 ar  
    26    13    36 1   
    27    14    16 ar  
    28    14    37 1   
    29    15    38 1   
    30    16    17 ar  
    31    16    28 ar  
    32    17    20 ar  
    33    18    19 ar  
    34    18    28 ar  
    35    18    39 1   
    36    19    20 ar  
    37    19    40 1   
    38    20    41 1   
    39    21    22 ar  
    40    21    23 ar  
    41    22    26 ar  
    42    23    24 ar  
    43    23    42 1   
    44    24    25 ar  
    45    24    43 1   
    46    25    26 ar  
    47    25    27 1   
    48    26    44 1   
@<TRIPOS>SUBSTRUCTURE
     1 U3M         1 TEMP              0 ****  ****    0 ROOT
