@<TRIPOS>MOLECULE
U3M
   44    48     1     0     0
SMALL
abcg2


@<TRIPOS>ATOM
      1 N           -6.0980    -2.3880    -0.0210 nb         1 U3M      -0.667000
      2 C           -5.9140     0.1480     1.1490 ca         1 U3M      -0.055000
      3 O            1.1720     4.5320    -1.0620 o          1 U3M      -0.713500
      4 C1          -7.0690    -0.5770     1.2190 ca         1 U3M      -0.182000
      5 C10         -1.1800     1.8140    -0.6300 ca         1 U3M      -0.053000
      6 C11          0.0280     2.4950    -0.7260 ca         1 U3M      -0.143600
      7 C12          0.0500     4.0000    -0.9770 c          1 U3M       0.714600
      8 C13         -0.0130    -0.2580    -0.3100 ca         1 U3M      -0.100000
      9 C14          1.2100     0.4040    -0.3960 cp         1 U3M      -0.094000
     10 C15          1.2140     1.7820    -0.6070 ca         1 U3M      -0.051000
     11 C16          2.4750    -0.3450    -0.2520 cp         1 U3M       0.010000
     12 C17          2.5980    -1.6490    -0.7990 ca         1 U3M      -0.093000
     13 C18          3.7580    -2.3590    -0.6750 ca         1 U3M      -0.111000
     14 C19          3.5480     0.2020     0.4110 ca         1 U3M      -0.083000
     15 C2          -7.1070    -1.8490     0.6100 ca         1 U3M       0.336900
     16 C20          4.7590    -0.5080     0.5550 ca         1 U3M       0.272000
     17 C21          4.8670    -1.8090     0.0060 ca         1 U3M      -0.091000
     18 C22          6.8960    -0.5840     1.3580 ca         1 U3M       0.339900
     19 C23          7.1080    -1.8820     0.8470 ca         1 U3M      -0.184000
     20 C24          6.0900    -2.4930     0.1700 ca         1 U3M      -0.062000
     21 C3          -4.9440    -1.6840    -0.0990 ca         1 U3M       0.257000
     22 C4          -4.8000    -0.3960     0.4710 ca         1 U3M      -0.075000
     23 C5          -3.8380    -2.2520    -0.7720 ca         1 U3M      -0.100000
     24 C6          -2.6580    -1.5700    -0.8670 ca         1 U3M      -0.091000
     25 C7          -2.5030    -0.2780    -0.3010 cp         1 U3M       0.007000
     26 C8          -3.5710     0.2860     0.3550 ca         1 U3M      -0.094000
     27 C9          -1.2160     0.4360    -0.4190 cp         1 U3M      -0.095000
     28 N1           5.7790     0.0810     1.2250 nb         1 U3M      -0.652000
     29 O1          -1.0570     4.5630    -1.0740 o          1 U3M      -0.713500
     30 H           -5.8390     1.1290     1.6020 ha         1 U3M       0.120000
     31 H1          -7.9440    -0.1980     1.7280 ha         1 U3M       0.114000
     32 H6          -2.1030     2.3680    -0.7440 ha         1 U3M       0.135000
     33 H7          -0.0310    -1.3220    -0.1090 ha         1 U3M       0.092000
     34 H8           2.1530     2.3120    -0.7040 ha         1 U3M       0.138000
     35 H9           1.7670    -2.0800    -1.3420 ha         1 U3M       0.116000
     36 H10          3.8410    -3.3490    -1.1070 ha         1 U3M       0.104000
     37 H11          3.4820     1.1860     0.8590 ha         1 U3M       0.147000
     38 H2          -8.0210    -2.4330     0.6560 h4         1 U3M       0.005100
     39 H12          7.6960    -0.0890     1.8980 h4         1 U3M       0.009100
     40 H13          8.0610    -2.3690     0.9970 ha         1 U3M       0.111000
     41 H14          6.2090    -3.4900    -0.2370 ha         1 U3M       0.108000
     42 H3          -3.9490    -3.2320    -1.2170 ha         1 U3M       0.120000
     43 H4          -1.8310    -2.0170    -1.4040 ha         1 U3M       0.116000
     44 H5          -3.4750     1.2620     0.8170 ha         1 U3M       0.131000
@<TRIPOS>BOND
     1     1    15 ar  
     2     1    21 ar  
     3     2     4 ar  
     4     2    22 ar  
     5     2    30 1   
     6     3     7 1   
     7     4    15 ar  
     8     4    31 1   
     9     5     6 ar  
    10     5    27 ar  
    11     5    32 1   
    12     6     7 1   
    13     6    10 ar  
    14     7    29 1   
    15     8     9 ar  
    16     8    27 ar  
    17     8    33 1   
    18     9    10 ar  
    19     9    11 1   
    20    10    34 1   
    21    11    12 ar  
    22    11    14 ar  
    23    12    13 ar  
    24    12    35 1   
    25    13    17 ar  
    26    13    36 1   
    27    14    16 ar  
    28    14    37 1   
    29    15    38 1   
    30    16    17 ar  
    31    16    28 ar  
    32    17    20 ar  
    33    18    19 ar  
    34    18    28 ar  
    35    18    39 1   
    36    19    20 ar  
    37    19    40 1   
    38    20    41 1   
    39    21    22 ar  
    40    21    23 ar  
    41    22    26 ar  
    42    23    24 ar  
    43    23    42 1   
    44    24    25 ar  
    45    24    43 1   
    46    25    26 ar  
    47    25    27 1   
    48    26    44 1   
@<TRIPOS>SUBSTRUCTURE
     1 U3M         1 TEMP              0 ****  ****    0 ROOT
