@<TRIPOS>MOLECULE
U3O
   35    36     1     0     0
SMALL
abcg2


@<TRIPOS>ATOM
      1 C2           4.6290    -5.2800   -37.3790 ca         1 U3O      -0.232300
      2 C3           4.8390    -3.9560   -37.7540 ca         1 U3O      -0.024000
      3 C4           4.6910    -2.9380   -36.8270 ca         1 U3O      -0.179000
      4 C5           4.3360    -3.2320   -35.5120 ca         1 U3O       0.190100
      5 C6           4.1200    -4.5660   -35.1480 ca         1 U3O       0.072000
      6 C7           4.8400    -6.3730   -38.3820 c3         1 U3O       0.349300
      7 C13          4.6200    -0.9960   -34.7620 ca         1 U3O       0.090100
      8 C14          3.6820     0.0120   -34.8950 ca         1 U3O      -0.127000
      9 C17          6.4020     0.5760   -34.8930 ca         1 U3O      -0.083000
     10 C18          5.9830    -0.7400   -34.7560 ca         1 U3O      -0.164000
     11 C20          1.3330     1.9320   -35.3220 c3         1 U3O      -0.080700
     12 C21          1.1090     1.3140   -36.7020 c3         1 U3O      -0.068100
     13 C22          0.2670     3.0250   -35.0490 c          1 U3O       0.731000
     14 C1           4.2660    -5.5860   -36.0720 ca         1 U3O      -0.028000
     15 F8           4.2840    -6.0850   -39.5810 f          1 U3O      -0.117333
     16 F9           6.1590    -6.5930   -38.6270 f          1 U3O      -0.117333
     17 F10          4.3260    -7.5550   -37.9840 f          1 U3O      -0.117333
     18 CL11         3.6630    -4.9470   -33.5120 cl         1 U3O      -0.178000
     19 O12          4.1510    -2.2880   -34.5530 os         1 U3O      -0.233200
     20 C15          4.0870     1.3450   -35.0310 ca         1 U3O      -0.071000
     21 C16          5.4690     1.5940   -35.0270 ca         1 U3O       0.103000
     22 S19          2.9840     2.7160   -35.1740 ss         1 U3O      -0.052000
     23 O23         -0.8430     2.5970   -34.6540 o          1 U3O      -0.704500
     24 O24          0.5850     4.2160   -35.2780 o          1 U3O      -0.704500
     25 CL25         6.0570     3.2350   -35.1810 cl         1 U3O      -0.202000
     26 H1           5.1140    -3.7120   -38.7720 ha         1 U3O       0.130000
     27 H2           4.8460    -1.9100   -37.1210 ha         1 U3O       0.147000
     28 H3           2.6390    -0.2620   -34.8830 ha         1 U3O       0.147000
     29 H4           7.4550     0.8170   -34.8900 ha         1 U3O       0.119000
     30 H5           6.6960    -1.5450   -34.6480 ha         1 U3O       0.120000
     31 H6           1.2410     1.1790   -34.5420 h1         1 U3O       0.059700
     32 H7           0.1260     0.8380   -36.7330 hc         1 U3O       0.029367
     33 H8           1.1470     2.0860   -37.4720 hc         1 U3O       0.029367
     34 H9           1.8600     0.5600   -36.9370 hc         1 U3O       0.029367
     35 H10          4.0980    -6.6080   -35.7660 ha         1 U3O       0.140000
@<TRIPOS>BOND
     1     1     2 ar  
     2     1     6 1   
     3     1    14 ar  
     4     2     3 ar  
     5     2    26 1   
     6     3     4 ar  
     7     3    27 1   
     8     4     5 ar  
     9     4    19 1   
    10     5    14 ar  
    11     5    18 1   
    12     6    15 1   
    13     6    16 1   
    14     6    17 1   
    15     7     8 ar  
    16     7    10 ar  
    17     7    19 1   
    18     8    20 ar  
    19     8    28 1   
    20     9    10 ar  
    21     9    21 ar  
    22     9    29 1   
    23    10    30 1   
    24    11    12 1   
    25    11    13 1   
    26    11    22 1   
    27    11    31 1   
    28    12    32 1   
    29    12    33 1   
    30    12    34 1   
    31    13    23 1   
    32    13    24 1   
    33    14    35 1   
    34    20    21 ar  
    35    20    22 1   
    36    21    25 1   
@<TRIPOS>SUBSTRUCTURE
     1 U3O         1 TEMP              0 ****  ****    0 ROOT
