@<TRIPOS>MOLECULE
U3O
   35    36     1     0     0
SMALL
No Charge or Current Charge


@<TRIPOS>ATOM
      1 C2           4.8440    -5.5280   -37.3610 ca         1 U3O      -0.232300
      2 C3           4.6390    -4.2200   -37.8520 ca         1 U3O      -0.024000
      3 C4           4.2820    -3.1800   -36.9770 ca         1 U3O      -0.179000
      4 C5           4.1370    -3.4300   -35.5990 ca         1 U3O       0.190100
      5 C6           4.3370    -4.7330   -35.1020 ca         1 U3O       0.072000
      6 C7           5.2450    -6.6610   -38.3110 c3         1 U3O       0.349300
      7 C13          4.2730    -1.1380   -34.8380 ca         1 U3O       0.090100
      8 C14          3.4240    -0.0550   -34.5640 ca         1 U3O      -0.127000
      9 C17          6.1080     0.4070   -35.2540 ca         1 U3O      -0.083000
     10 C18          5.6210    -0.9100   -35.1760 ca         1 U3O      -0.164000
     11 C20          1.2490     2.2470   -35.2300 c3         1 U3O      -0.080700
     12 C21          1.5390     2.0960   -36.7440 c3         1 U3O      -0.068100
     13 C22          0.1680     3.3090   -34.9200 c          1 U3O       0.731000
     14 C1           4.6940    -5.7730   -35.9770 ca         1 U3O      -0.028000
     15 F8           4.7570    -6.4830   -39.5600 f          1 U3O      -0.117333
     16 F9           6.5890    -6.7550   -38.4210 f          1 U3O      -0.117333
     17 F10          4.7970    -7.8660   -37.8910 f          1 U3O      -0.117333
     18 Cl11         4.1560    -5.0790   -33.3810 cl         1 U3O      -0.178000
     19 O12          3.7750    -2.4160   -34.7370 os         1 U3O      -0.233200
     20 C15          3.9030     1.2680   -34.6510 ca         1 U3O      -0.071000
     21 C16          5.2540     1.4930   -34.9930 ca         1 U3O       0.103000
     22 S19          2.8090     2.6510   -34.3110 ss         1 U3O      -0.052000
     23 O23         -0.6830     3.0290   -34.0880 o          1 U3O      -0.704500
     24 O24          0.1870     4.3720   -35.5280 o          1 U3O      -0.704500
     25 Cl25         5.9010     3.1290   -35.1070 cl         1 U3O      -0.202000
     26 H1           4.7560    -4.0030   -38.9130 ha         1 U3O       0.130000
     27 H2           4.1150    -2.1810   -37.3700 ha         1 U3O       0.147000
     28 H3           2.3930    -0.2510   -34.2810 ha         1 U3O       0.147000
     29 H4           7.1480     0.5870   -35.5160 ha         1 U3O       0.119000
     30 H5           6.2910    -1.7430   -35.3700 ha         1 U3O       0.120000
     31 H6           0.8680     1.2910   -34.8550 h1         1 U3O       0.059700
     32 H7           0.6120     1.8870   -37.2920 hc         1 U3O       0.029367
     33 H8           1.9830     3.0120   -37.1520 hc         1 U3O       0.029367
     34 H9           2.2330     1.2680   -36.9290 hc         1 U3O       0.029367
     35 H10          4.8560    -6.7690   -35.5710 ha         1 U3O       0.140000
@<TRIPOS>BOND
     1     1     2 ar  
     2     1     6 1   
     3     1    14 ar  
     4     2     3 ar  
     5     2    26 1   
     6     3     4 ar  
     7     3    27 1   
     8     4     5 ar  
     9     4    19 1   
    10     5    14 ar  
    11     5    18 1   
    12     6    15 1   
    13     6    16 1   
    14     6    17 1   
    15     7     8 ar  
    16     7    10 ar  
    17     7    19 1   
    18     8    20 ar  
    19     8    28 1   
    20     9    10 ar  
    21     9    21 ar  
    22     9    29 1   
    23    10    30 1   
    24    11    12 1   
    25    11    13 1   
    26    11    22 1   
    27    11    31 1   
    28    12    32 1   
    29    12    33 1   
    30    12    34 1   
    31    13    23 1   
    32    13    24 1   
    33    14    35 1   
    34    20    21 ar  
    35    20    22 1   
    36    21    25 1   
@<TRIPOS>SUBSTRUCTURE
     1 U3O         1 TEMP              0 ****  ****    0 ROOT
