@<TRIPOS>MOLECULE
U3Q
   32    33     1     0     0
SMALL
abcg2


@<TRIPOS>ATOM
      1 C01          0.0520    -4.9960     4.3050 ca         1 U3Q      -0.132000
      2 C02         -0.5500    -6.2610     4.4550 ca         1 U3Q      -0.117000
      3 C03          0.0370    -7.2040     5.2530 ca         1 U3Q      -0.109000
      4 C04          1.2490    -6.9310     5.9310 ca         1 U3Q      -0.036000
      5 C05          1.8480    -7.9020     6.7660 ca         1 U3Q      -0.130000
      6 C06          3.0110    -7.6170     7.4240 ca         1 U3Q      -0.096000
      7 C07          3.6250    -6.3590     7.2650 ca         1 U3Q      -0.115000
      8 C08          3.0920    -5.3850     6.4570 ca         1 U3Q      -0.030300
      9 C09          3.8070    -4.0730     6.2870 c3         1 U3Q      -0.043100
     10 C10          4.5560    -3.9370     4.9550 c3         1 U3Q      -0.055400
     11 C11          5.6810    -4.9470     4.7440 c3         1 U3Q      -0.049400
     12 C12          6.7960    -4.9380     5.7950 c3         1 U3Q      -0.202400
     13 C13          7.5070    -3.5770     5.8870 c          1 U3Q       0.712000
     14 C16          1.8690    -5.6590     5.7740 ca         1 U3Q      -0.033000
     15 C17          1.2270    -4.7050     4.9450 ca         1 U3Q      -0.080000
     16 O14          8.4770    -3.3940     5.1220 o          1 U3Q      -0.744500
     17 O15          7.0420    -2.7500     6.7020 o          1 U3Q      -0.744500
     18 H1          -0.4200    -4.2480     3.6810 ha         1 U3Q       0.102000
     19 H2          -1.4770    -6.4810     3.9410 ha         1 U3Q       0.099000
     20 H3          -0.4210    -8.1770     5.3800 ha         1 U3Q       0.100000
     21 H4           1.3700    -8.8670     6.8790 ha         1 U3Q       0.099000
     22 H5           3.4690    -8.3550     8.0700 ha         1 U3Q       0.103000
     23 H6           4.5480    -6.1570     7.7950 ha         1 U3Q       0.128000
     24 H7           4.5190    -3.9430     7.1030 hc         1 U3Q       0.059700
     25 H8           3.1000    -3.2440     6.3780 hc         1 U3Q       0.059700
     26 H9           4.9520    -2.9210     4.8940 hc         1 U3Q       0.035700
     27 H10          3.8500    -4.0350     4.1260 hc         1 U3Q       0.035700
     28 H11          5.2550    -5.9540     4.6950 hc         1 U3Q       0.016200
     29 H12          6.1230    -4.7630     3.7610 hc         1 U3Q       0.016200
     30 H13          6.3880    -5.2140     6.7700 hc         1 U3Q       0.014200
     31 H14          7.5140    -5.7160     5.5220 hc         1 U3Q       0.014200
     32 H15          1.6640    -3.7240     4.8160 ha         1 U3Q       0.122000
@<TRIPOS>BOND
     1     1     2 ar  
     2     1    15 ar  
     3     1    18 1   
     4     2     3 ar  
     5     2    19 1   
     6     3     4 ar  
     7     3    20 1   
     8     4     5 ar  
     9     4    14 ar  
    10     5     6 ar  
    11     5    21 1   
    12     6     7 ar  
    13     6    22 1   
    14     7     8 ar  
    15     7    23 1   
    16     8     9 1   
    17     8    14 ar  
    18     9    10 1   
    19     9    24 1   
    20     9    25 1   
    21    10    11 1   
    22    10    26 1   
    23    10    27 1   
    24    11    12 1   
    25    11    28 1   
    26    11    29 1   
    27    12    13 1   
    28    12    30 1   
    29    12    31 1   
    30    13    16 1   
    31    13    17 1   
    32    14    15 ar  
    33    15    32 1   
@<TRIPOS>SUBSTRUCTURE
     1 U3Q         1 TEMP              0 ****  ****    0 ROOT
