@<TRIPOS>MOLECULE
U3Q
   32    33     1     0     0
SMALL
No Charge or Current Charge


@<TRIPOS>ATOM
      1 C01         -0.0040    -5.0160     4.2690 ca         1 U3Q      -0.132000
      2 C02         -0.6000    -6.2760     4.4240 ca         1 U3Q      -0.117000
      3 C03          0.0050    -7.2370     5.2480 ca         1 U3Q      -0.109000
      4 C04          1.2080    -6.9430     5.9180 ca         1 U3Q      -0.036000
      5 C05          1.7920    -7.9230     6.7400 ca         1 U3Q      -0.130000
      6 C06          2.9870    -7.6500     7.4180 ca         1 U3Q      -0.096000
      7 C07          3.6030    -6.3980     7.2760 ca         1 U3Q      -0.115000
      8 C08          3.0400    -5.4000     6.4530 ca         1 U3Q      -0.030300
      9 C09          3.7760    -4.0600     6.3400 c3         1 U3Q      -0.043100
     10 C10          4.5820    -3.9050     5.0240 c3         1 U3Q      -0.055400
     11 C11          5.7160    -4.9420     4.8110 c3         1 U3Q      -0.049400
     12 C12          6.8900    -4.8970     5.8290 c3         1 U3Q      -0.202400
     13 C13          7.6350    -3.5480     5.7800 c          1 U3Q       0.712000
     14 C16          1.8220    -5.6740     5.7670 ca         1 U3Q      -0.033000
     15 C17          1.1960    -4.7140     4.9340 ca         1 U3Q      -0.080000
     16 O14          8.5200    -3.4090     4.9490 o          1 U3Q      -0.744500
     17 O15          7.3010    -2.6700     6.5610 o          1 U3Q      -0.744500
     18 H1          -0.4730    -4.2700     3.6320 ha         1 U3Q       0.102000
     19 H2          -1.5290    -6.5080     3.9090 ha         1 U3Q       0.099000
     20 H3          -0.4630    -8.2120     5.3650 ha         1 U3Q       0.100000
     21 H4           1.3210    -8.8960     6.8550 ha         1 U3Q       0.099000
     22 H5           3.4370    -8.4090     8.0540 ha         1 U3Q       0.103000
     23 H6           4.5320    -6.2050     7.8080 ha         1 U3Q       0.128000
     24 H7           4.4540    -3.9250     7.1900 hc         1 U3Q       0.059700
     25 H8           3.0650    -3.2300     6.4250 hc         1 U3Q       0.059700
     26 H9           5.0020    -2.8930     4.9820 hc         1 U3Q       0.035700
     27 H10          3.8930    -3.9780     4.1750 hc         1 U3Q       0.035700
     28 H11          5.2830    -5.9500     4.8180 hc         1 U3Q       0.016200
     29 H12          6.1260    -4.7990     3.8040 hc         1 U3Q       0.016200
     30 H13          6.4600    -5.0680     6.8220 hc         1 U3Q       0.014200
     31 H14          7.5610    -5.7020     5.5080 hc         1 U3Q       0.014200
     32 H15          1.6240    -3.7270     4.7890 ha         1 U3Q       0.122000
@<TRIPOS>BOND
     1     1     2 ar  
     2     1    15 ar  
     3     1    18 1   
     4     2     3 ar  
     5     2    19 1   
     6     3     4 ar  
     7     3    20 1   
     8     4     5 ar  
     9     4    14 ar  
    10     5     6 ar  
    11     5    21 1   
    12     6     7 ar  
    13     6    22 1   
    14     7     8 ar  
    15     7    23 1   
    16     8     9 1   
    17     8    14 ar  
    18     9    10 1   
    19     9    24 1   
    20     9    25 1   
    21    10    11 1   
    22    10    26 1   
    23    10    27 1   
    24    11    12 1   
    25    11    28 1   
    26    11    29 1   
    27    12    13 1   
    28    12    30 1   
    29    12    31 1   
    30    13    16 1   
    31    13    17 1   
    32    14    15 ar  
    33    15    32 1   
@<TRIPOS>SUBSTRUCTURE
     1 U3Q         1 TEMP              0 ****  ****    0 ROOT
