@<TRIPOS>MOLECULE
U3R
   31    32     1     0     0
SMALL
abcg2


@<TRIPOS>ATOM
      1 N1           4.9230    -2.5720   -52.9210 n          1 U3R      -0.401800
      2 C4           1.9510    -3.7700   -52.6740 ca         1 U3R      -0.048300
      3 C5           1.8860    -2.7370   -51.7360 ca         1 U3R      -0.111000
      4 C6           0.7860    -2.6070   -50.8930 ca         1 U3R      -0.119000
      5 C7          -0.2720    -3.5070   -50.9720 ca         1 U3R      -0.135000
      6 C8          -0.2200    -4.5400   -51.9040 ca         1 U3R      -0.119000
      7 C10          3.8900    -2.6980   -53.9580 c5         1 U3R       0.114000
      8 C13          5.0670    -3.8010   -52.1330 c5         1 U3R       0.116000
      9 C2           4.2400    -4.8300   -52.9080 c5         1 U3R      -0.204700
     10 C3           3.1400    -3.9800   -53.5840 c5         1 U3R      -0.033400
     11 C9           0.8810    -4.6660   -52.7430 ca         1 U3R      -0.111000
     12 C11          5.6510    -1.4720   -52.6650 c          1 U3R       0.592100
     13 C12          5.3860    -0.2650   -53.5360 c3         1 U3R      -0.172100
     14 O2           6.4920    -1.4440   -51.7550 o          1 U3R      -0.648100
     15 H1           2.6960    -2.0230   -51.6600 ha         1 U3R       0.118500
     16 H2           0.7560    -1.7970   -50.1730 ha         1 U3R       0.098000
     17 H3          -1.1280    -3.4030   -50.3180 ha         1 U3R       0.095000
     18 H4          -1.0390    -5.2440   -51.9800 ha         1 U3R       0.098000
     19 H5           4.3510    -2.8070   -54.9420 h1         1 U3R       0.041700
     20 H6           3.2410    -1.8240   -53.9760 h1         1 U3R       0.041700
     21 H7           6.1110    -4.0930   -52.0530 h1         1 U3R       0.053200
     22 H8           4.6790    -3.6390   -51.1240 h1         1 U3R       0.053200
     23 H9           3.8030    -5.5550   -52.2190 hc         1 U3R       0.054700
     24 H10          2.8070    -4.4880   -54.4850 hc         1 U3R       0.097700
     25 H11          0.9130    -5.4700   -53.4690 ha         1 U3R       0.118500
     26 H12          6.1030     0.5130   -53.2880 hc         1 U3R       0.048367
     27 H13          5.4680    -0.5150   -54.5950 hc         1 U3R       0.048367
     28 H14          4.3750     0.1110   -53.3650 hc         1 U3R       0.048367
     29 C1           5.1090    -5.6570   -53.9000 c          1 U3R       0.718000
     30 O3           6.1130    -6.2200   -53.3950 o          1 U3R      -0.726000
     31 O1           4.7410    -5.7340   -55.0970 o          1 U3R      -0.726000
@<TRIPOS>BOND
     1     1     7 1   
     2     1     8 1   
     3     1    12 1   
     4     2     3 ar  
     5     2    10 1   
     6     2    11 ar  
     7     3     4 ar  
     8     3    15 1   
     9     4     5 ar  
    10     4    16 1   
    11     5     6 ar  
    12     5    17 1   
    13     6    11 ar  
    14     6    18 1   
    15     7    10 1   
    16     7    19 1   
    17     7    20 1   
    18     8     9 1   
    19     8    21 1   
    20     8    22 1   
    21     9    10 1   
    22     9    23 1   
    23     9    29 1   
    24    10    24 1   
    25    11    25 1   
    26    12    13 1   
    27    12    14 2   
    28    13    26 1   
    29    13    27 1   
    30    13    28 1   
    31    29    30 1   
    32    29    31 1   
@<TRIPOS>SUBSTRUCTURE
     1 U3R         1 TEMP              0 ****  ****    0 ROOT
