@<TRIPOS>MOLECULE
U3R
   31    32     1     0     0
SMALL
No Charge or Current Charge


@<TRIPOS>ATOM
      1 N1           4.9010    -2.5640   -52.9330 n          1 U3R      -0.401800
      2 C4           1.9560    -3.8110   -52.6560 ca         1 U3R      -0.048300
      3 C5           1.8910    -2.7610   -51.7070 ca         1 U3R      -0.111000
      4 C6           0.7820    -2.6290   -50.8530 ca         1 U3R      -0.119000
      5 C7          -0.2800    -3.5430   -50.9290 ca         1 U3R      -0.135000
      6 C8          -0.2290    -4.5910   -51.8590 ca         1 U3R      -0.119000
      7 C10          3.8420    -2.6760   -53.9620 c5         1 U3R       0.114000
      8 C13          5.0670    -3.7790   -52.1080 c5         1 U3R       0.116000
      9 C2           4.2250    -4.8510   -52.8540 c5         1 U3R      -0.204700
     10 C3           3.1400    -4.0280   -53.6240 c5         1 U3R      -0.033400
     11 C9           0.8800    -4.7220   -52.7120 ca         1 U3R      -0.111000
     12 C11          5.6760    -1.4060   -52.7310 c          1 U3R       0.592100
     13 C12          5.4420    -0.2000   -53.6470 c3         1 U3R      -0.172100
     14 O2           6.5210    -1.3620   -51.8460 o          1 U3R      -0.648100
     15 H1           2.6950    -2.0370   -51.6140 ha         1 U3R       0.118500
     16 H2           0.7480    -1.8170   -50.1310 ha         1 U3R       0.098000
     17 H3          -1.1370    -3.4400   -50.2680 ha         1 U3R       0.095000
     18 H4          -1.0490    -5.3030   -51.9200 ha         1 U3R       0.098000
     19 H5           4.2960    -2.7130   -54.9620 h1         1 U3R       0.041700
     20 H6           3.1420    -1.8310   -53.9470 h1         1 U3R       0.041700
     21 H7           6.1210    -4.0750   -52.0130 h1         1 U3R       0.053200
     22 H8           4.6750    -3.6040   -51.0970 h1         1 U3R       0.053200
     23 H9           3.7840    -5.5640   -52.1480 hc         1 U3R       0.054700
     24 H10          2.8090    -4.5340   -54.5400 hc         1 U3R       0.097700
     25 H11          0.9030    -5.5440   -53.4250 ha         1 U3R       0.118500
     26 H12          6.1260     0.6290   -53.4340 hc         1 U3R       0.048367
     27 H13          5.5080    -0.5180   -54.6930 hc         1 U3R       0.048367
     28 H14          4.3970     0.1190   -53.5600 hc         1 U3R       0.048367
     29 C1           5.1300    -5.6470   -53.8330 c          1 U3R       0.718000
     30 O3           5.2170    -6.8560   -53.6780 o          1 U3R      -0.726000
     31 O1           5.7200    -5.0760   -54.7380 o          1 U3R      -0.726000
@<TRIPOS>BOND
     1     1     7 1   
     2     1     8 1   
     3     1    12 1   
     4     2     3 ar  
     5     2    10 1   
     6     2    11 ar  
     7     3     4 ar  
     8     3    15 1   
     9     4     5 ar  
    10     4    16 1   
    11     5     6 ar  
    12     5    17 1   
    13     6    11 ar  
    14     6    18 1   
    15     7    10 1   
    16     7    19 1   
    17     7    20 1   
    18     8     9 1   
    19     8    21 1   
    20     8    22 1   
    21     9    10 1   
    22     9    23 1   
    23     9    29 1   
    24    10    24 1   
    25    11    25 1   
    26    12    13 1   
    27    12    14 2   
    28    13    26 1   
    29    13    27 1   
    30    13    28 1   
    31    29    30 1   
    32    29    31 1   
@<TRIPOS>SUBSTRUCTURE
     1 U3R         1 TEMP              0 ****  ****    0 ROOT
