@<TRIPOS>MOLECULE
U3S
   43    45     1     0     0
SMALL
bcc


@<TRIPOS>ATOM
      1 C4          -4.2080     1.9460     0.1860 c          1 U3S       0.733700
      2 C5          -4.0640     1.1780     1.3970 cc         1 U3S      -0.332200
      3 C6          -3.0680     0.2830     1.4960 cd         1 U3S       0.065600
      4 N1          -2.1680     0.0390     0.4980 n          1 U3S      -0.386000
      5 N3          -3.2510     1.6470    -0.7720 ns         1 U3S      -0.605500
      6 CAV          5.0640     2.1950    -0.0930 c6         1 U3S      -0.075400
      7 CAK          3.9280     2.0280    -1.0930 c6         1 U3S      -0.074900
      8 CAM          3.4230     0.5930    -1.0950 c6         1 U3S       0.170300
      9 CAJ          4.6310     1.6830     1.2760 c6         1 U3S      -0.074900
     10 CAL          4.1010     0.2610     1.1790 c6         1 U3S       0.170300
     11 NBA          3.0020     0.1760     0.2320 n3         1 U3S      -0.712600
     12 C8           2.3930    -1.1380     0.2240 c3         1 U3S       0.175800
     13 C7           0.9680    -1.1240    -0.2880 c5         1 U3S       0.149100
     14 O4           0.1470    -0.3760     0.6070 os         1 U3S      -0.373600
     15 C3           0.3240    -2.5050    -0.3370 c5         1 U3S       0.081100
     16 O3           0.6990    -3.1740    -1.5080 oh         1 U3S      -0.575800
     17 C2          -1.1600    -2.1550    -0.2350 c5         1 U3S       0.063100
     18 O2          -1.9890    -3.1380     0.3210 oh         1 U3S      -0.588800
     19 C1          -1.1160    -0.9530     0.7100 c5         1 U3S       0.322500
     20 O1          -5.0590     2.7880    -0.0330 o          1 U3S      -0.602500
     21 C9          -2.2290     0.7360    -0.6940 c          1 U3S       0.830500
     22 O5          -1.4510     0.5630    -1.6070 o          1 U3S      -0.629500
     23 H5          -4.7490     1.3310     2.2160 ha         1 U3S       0.174000
     24 H6          -2.9310    -0.3010     2.3950 h4         1 U3S       0.157000
     25 HN3         -3.2990     2.1620    -1.6430 hn         1 U3S       0.341500
     26 HAVA         5.3800     3.2390    -0.0340 hc         1 U3S       0.037700
     27 HAK          3.1030     2.6990    -0.8350 hc         1 U3S       0.047950
     28 HAKA         4.2530     2.2950    -2.1010 hc         1 U3S       0.047950
     29 HAM          2.5820     0.5040    -1.7850 h1         1 U3S       0.028950
     30 HAMA         4.2190    -0.0700    -1.4840 h1         1 U3S       0.028950
     31 HAJ          5.4640     1.7110     1.9820 hc         1 U3S       0.047950
     32 HAJA         3.8460     2.3290     1.6800 hc         1 U3S       0.047950
     33 HAL          4.9280    -0.4180     0.9050 h1         1 U3S       0.028950
     34 HALA         3.7410    -0.0640     2.1590 h1         1 U3S       0.028950
     35 H7           2.9700    -1.8620    -0.3760 h1         1 U3S       0.041200
     36 H5'A         2.3800    -1.5260     1.2460 h1         1 U3S       0.041200
     37 H4           0.9170    -0.6760    -1.2880 h1         1 U3S       0.090700
     38 H3           0.6150    -3.0720     0.5600 h1         1 U3S       0.050700
     39 HO3          0.4980    -4.1090    -1.4100 ho         1 U3S       0.410000
     40 H2          -1.5070    -1.8570    -1.2300 h1         1 U3S       0.084700
     41 HO2         -2.2250    -3.7660    -0.3670 ho         1 U3S       0.417000
     42 H1          -1.2780    -1.3110     1.7330 h2         1 U3S       0.077700
     43 HAV          5.9330     1.6220    -0.4340 hc         1 U3S       0.037700
@<TRIPOS>BOND
     1     1     2 1   
     2     1     5 1   
     3     1    20 2   
     4     2     3 2   
     5     2    23 1   
     6     3     4 1   
     7     3    24 1   
     8     4    19 1   
     9     4    21 1   
    10     5    21 1   
    11     5    25 1   
    12     6     7 1   
    13     6     9 1   
    14     6    26 1   
    15     6    43 1   
    16     7     8 1   
    17     7    27 1   
    18     7    28 1   
    19     8    11 1   
    20     8    29 1   
    21     8    30 1   
    22     9    10 1   
    23     9    31 1   
    24     9    32 1   
    25    10    11 1   
    26    10    33 1   
    27    10    34 1   
    28    11    12 1   
    29    12    13 1   
    30    12    35 1   
    31    12    36 1   
    32    13    14 1   
    33    13    15 1   
    34    13    37 1   
    35    14    19 1   
    36    15    16 1   
    37    15    17 1   
    38    15    38 1   
    39    16    39 1   
    40    17    18 1   
    41    17    19 1   
    42    17    40 1   
    43    18    41 1   
    44    19    42 1   
    45    21    22 2   
@<TRIPOS>SUBSTRUCTURE
     1 U3S         1 TEMP              0 ****  ****    0 ROOT
