@<TRIPOS>MOLECULE
U3S
   43    45     1     0     0
SMALL
No Charge or Current Charge


@<TRIPOS>ATOM
      1 C4          -4.2700     1.9110    -0.1520 c          1 U3S       0.591200
      2 C5          -4.4110     0.9470     0.9330 cc         1 U3S      -0.382200
      3 C6          -3.4260     0.0340     1.2260 cd         1 U3S       0.015600
      4 N1          -2.2520     0.0260     0.4740 n          1 U3S      -0.319000
      5 N3          -3.0980     1.7990    -0.8250 ns         1 U3S      -0.471500
      6 CAV          5.1430     2.2680    -0.2590 c6         1 U3S      -0.075400
      7 CAK          3.7130     2.3080    -0.8440 c6         1 U3S      -0.074900
      8 CAM          3.1110     0.8860    -0.9500 c6         1 U3S       0.170300
      9 CAJ          5.1430     1.5000     1.0830 c6         1 U3S      -0.074900
     10 CAL          4.5060     0.0980     0.9200 c6         1 U3S       0.170300
     11 NBA          3.1260     0.1780     0.3640 n3         1 U3S      -0.712600
     12 C8           2.4660    -1.1610     0.3280 c3         1 U3S       0.175800
     13 C7           0.9620    -1.1900    -0.0790 c5         1 U3S       0.172300
     14 O4           0.1620    -0.3500     0.7960 os         1 U3S      -0.420000
     15 C3           0.2840    -2.5890     0.0270 c5         1 U3S       0.104300
     16 O3           0.6890    -3.5140    -0.9940 oh         1 U3S      -0.698000
     17 C2          -1.2010    -2.1440    -0.1110 c5         1 U3S       0.086300
     18 O2          -2.1360    -3.1800     0.2580 oh         1 U3S      -0.711000
     19 C1          -1.1670    -0.9180     0.8660 c5         1 U3S       0.345700
     20 O1          -5.1120     2.7410    -0.4450 o          1 U3S      -0.527000
     21 C9          -2.0790     0.9240    -0.6070 c          1 U3S       0.621000
     22 O5          -1.1090     0.9340    -1.3460 o          1 U3S      -0.554000
     23 H5          -5.3390     0.9980     1.4910 ha         1 U3S       0.224000
     24 H6          -3.4770    -0.7080     2.0220 h4         1 U3S       0.207000
     25 HN3         -2.9680     2.4380    -1.5920 hn         1 U3S       0.341500
     26 HAVA         5.5230     3.2880    -0.1120 hc         1 U3S       0.037700
     27 HAK          3.0690     2.9300    -0.2070 hc         1 U3S       0.047950
     28 HAKA         3.7260     2.7820    -1.8340 hc         1 U3S       0.047950
     29 HAM          2.0840     0.9830    -1.3280 h1         1 U3S       0.028950
     30 HAMA         3.6790     0.3100    -1.6970 h1         1 U3S       0.028950
     31 HAJ          6.1700     1.4010     1.4590 hc         1 U3S       0.047950
     32 HAJA         4.5850     2.0700     1.8380 hc         1 U3S       0.047950
     33 HAL          5.1440    -0.5110     0.2630 h1         1 U3S       0.028950
     34 HALA         4.4910    -0.3950     1.9030 h1         1 U3S       0.028950
     35 H7           3.0110    -1.8180    -0.3640 h1         1 U3S       0.041200
     36 H5'A         2.5400    -1.6250     1.3210 h1         1 U3S       0.041200
     37 H4           0.8690    -0.8130    -1.1060 h1         1 U3S       0.090700
     38 H3           0.4710    -3.0200     1.0230 h1         1 U3S       0.050700
     39 HO3          0.3680    -4.4070    -0.7240 ho         1 U3S       0.509000
     40 H2          -1.3970    -1.7990    -1.1380 h1         1 U3S       0.084700
     41 HO2         -2.2970    -3.7330    -0.5440 ho         1 U3S       0.516000
     42 H1          -1.3620    -1.2420     1.8950 h2         1 U3S       0.077700
     43 HAV          5.8210     1.7750    -0.9690 hc         1 U3S       0.037700
@<TRIPOS>BOND
     1     1     2 1   
     2     1     5 1   
     3     1    20 2   
     4     2     3 2   
     5     2    23 1   
     6     3     4 1   
     7     3    24 1   
     8     4    19 1   
     9     4    21 1   
    10     5    21 1   
    11     5    25 1   
    12     6     7 1   
    13     6     9 1   
    14     6    26 1   
    15     6    43 1   
    16     7     8 1   
    17     7    27 1   
    18     7    28 1   
    19     8    11 1   
    20     8    29 1   
    21     8    30 1   
    22     9    10 1   
    23     9    31 1   
    24     9    32 1   
    25    10    11 1   
    26    10    33 1   
    27    10    34 1   
    28    11    12 1   
    29    12    13 1   
    30    12    35 1   
    31    12    36 1   
    32    13    14 1   
    33    13    15 1   
    34    13    37 1   
    35    14    19 1   
    36    15    16 1   
    37    15    17 1   
    38    15    38 1   
    39    16    39 1   
    40    17    18 1   
    41    17    19 1   
    42    17    40 1   
    43    18    41 1   
    44    19    42 1   
    45    21    22 2   
@<TRIPOS>SUBSTRUCTURE
     1 U3S         1 TEMP              0 ****  ****    0 ROOT
