@<TRIPOS>MOLECULE
U3T
   35    35     1     0     0
SMALL
abcg2


@<TRIPOS>ATOM
      1 C01          1.3660   -10.0400     5.8720 c1         1 U3T      -0.239000
      2 C02          1.6380    -9.0660     6.5210 c1         1 U3T      -0.168100
      3 C03          1.9830    -7.8830     7.3070 c3         1 U3T       0.241700
      4 C05          0.4630    -6.3980     6.2690 ca         1 U3T       0.092100
      5 C06         -0.7000    -6.9090     5.7020 ca         1 U3T      -0.118000
      6 C07         -1.2280    -6.3370     4.5560 ca         1 U3T      -0.118000
      7 C08         -0.5870    -5.2530     3.9720 ca         1 U3T      -0.116000
      8 C09          0.5680    -4.7480     4.5490 ca         1 U3T      -0.102000
      9 C10          1.1200    -5.3030     5.7030 ca         1 U3T      -0.071300
     10 C11          2.3760    -4.7080     6.2800 c3         1 U3T      -0.041100
     11 C12          3.6200    -5.0290     5.4500 c3         1 U3T      -0.073400
     12 C13          4.8890    -4.4100     6.0180 c3         1 U3T      -0.071400
     13 C14          6.1270    -4.7730     5.2060 c3         1 U3T      -0.042400
     14 C15          7.4050    -4.1150     5.7050 c3         1 U3T      -0.209400
     15 C16          7.5430    -2.5990     5.4460 c          1 U3T       0.715000
     16 O04          0.9100    -6.9670     7.4340 os         1 U3T      -0.359100
     17 O17          6.7660    -2.0760     4.6220 o          1 U3T      -0.743000
     18 O18          8.4600    -2.0240     6.0700 o          1 U3T      -0.743000
     19 H1           1.1210   -10.9020     5.2940 ha         1 U3T       0.248000
     20 H2           2.2510    -8.1810     8.3220 h1         1 U3T       0.072200
     21 H3           2.8670    -7.4100     6.8680 h1         1 U3T       0.072200
     22 H4          -1.1930    -7.7500     6.1730 ha         1 U3T       0.117000
     23 H5          -2.1350    -6.7370     4.1220 ha         1 U3T       0.104000
     24 H6          -0.9900    -4.7950     3.0790 ha         1 U3T       0.108000
     25 H7           1.0570    -3.8910     4.0990 ha         1 U3T       0.122000
     26 H8           2.5250    -5.0380     7.3100 hc         1 U3T       0.053700
     27 H9           2.2580    -3.6210     6.3240 hc         1 U3T       0.053700
     28 H10          3.4710    -4.6730     4.4250 hc         1 U3T       0.031700
     29 H11          3.7440    -6.1140     5.3740 hc         1 U3T       0.031700
     30 H12          5.0240    -4.7400     7.0540 hc         1 U3T       0.044200
     31 H13          4.7770    -3.3230     6.0530 hc         1 U3T       0.044200
     32 H14          5.9660    -4.5030     4.1590 hc         1 U3T       0.015700
     33 H15          6.2470    -5.8610     5.2260 hc         1 U3T       0.015700
     34 H16          7.5310    -4.3060     6.7760 hc         1 U3T       0.017200
     35 H17          8.2670    -4.5990     5.2290 hc         1 U3T       0.017200
@<TRIPOS>BOND
     1     1     2 3   
     2     1    19 1   
     3     2     3 1   
     4     3    16 1   
     5     3    20 1   
     6     3    21 1   
     7     4     5 ar  
     8     4     9 ar  
     9     4    16 1   
    10     5     6 ar  
    11     5    22 1   
    12     6     7 ar  
    13     6    23 1   
    14     7     8 ar  
    15     7    24 1   
    16     8     9 ar  
    17     8    25 1   
    18     9    10 1   
    19    10    11 1   
    20    10    26 1   
    21    10    27 1   
    22    11    12 1   
    23    11    28 1   
    24    11    29 1   
    25    12    13 1   
    26    12    30 1   
    27    12    31 1   
    28    13    14 1   
    29    13    32 1   
    30    13    33 1   
    31    14    15 1   
    32    14    34 1   
    33    14    35 1   
    34    15    17 1   
    35    15    18 1   
@<TRIPOS>SUBSTRUCTURE
     1 U3T         1 TEMP              0 ****  ****    0 ROOT
