@<TRIPOS>MOLECULE
U3T
   35    35     1     0     0
SMALL
No Charge or Current Charge


@<TRIPOS>ATOM
      1 C01          1.4260   -10.0940     6.0650 c1         1 U3T      -0.239000
      2 C02          1.7210    -9.0910     6.6760 c1         1 U3T      -0.168100
      3 C03          2.0810    -7.8520     7.3890 c3         1 U3T       0.241700
      4 C05          0.4390    -6.3900     6.3060 ca         1 U3T       0.092100
      5 C06         -0.7690    -6.8880     5.7870 ca         1 U3T      -0.118000
      6 C07         -1.3280    -6.3290     4.6260 ca         1 U3T      -0.118000
      7 C08         -0.6830    -5.2600     3.9870 ca         1 U3T      -0.116000
      8 C09          0.5160    -4.7460     4.5110 ca         1 U3T      -0.102000
      9 C10          1.0900    -5.3000     5.6740 ca         1 U3T      -0.071300
     10 C11          2.3750    -4.6770     6.2240 c3         1 U3T      -0.041100
     11 C12          3.6030    -4.9610     5.3300 c3         1 U3T      -0.073400
     12 C13          4.9210    -4.4110     5.9170 c3         1 U3T      -0.071400
     13 C14          6.1470    -4.6970     5.0180 c3         1 U3T      -0.042400
     14 C15          7.5040    -4.2250     5.6030 c3         1 U3T      -0.209400
     15 C16          7.5760    -2.6890     5.7060 c          1 U3T       0.715000
     16 O04          0.9390    -6.9710     7.4520 os         1 U3T      -0.359100
     17 O17          7.9430    -2.0640     4.7220 o          1 U3T      -0.743000
     18 O18          7.2500    -2.1610     6.7580 o          1 U3T      -0.743000
     19 H1           1.1530   -10.9750     5.5170 ha         1 U3T       0.248000
     20 H2           2.4080    -8.1160     8.4030 h1         1 U3T       0.072200
     21 H3           2.9270    -7.3760     6.8820 h1         1 U3T       0.072200
     22 H4          -1.2690    -7.7160     6.2840 ha         1 U3T       0.117000
     23 H5          -2.2590    -6.7240     4.2250 ha         1 U3T       0.104000
     24 H6          -1.1150    -4.8230     3.0900 ha         1 U3T       0.108000
     25 H7           0.9970    -3.9060     4.0140 ha         1 U3T       0.122000
     26 H8           2.5790    -5.0220     7.2440 hc         1 U3T       0.053700
     27 H9           2.2440    -3.5900     6.3050 hc         1 U3T       0.053700
     28 H10          3.4390    -4.5180     4.3400 hc         1 U3T       0.031700
     29 H11          3.6990    -6.0430     5.1790 hc         1 U3T       0.031700
     30 H12          5.0880    -4.8570     6.9060 hc         1 U3T       0.044200
     31 H13          4.8190    -3.3300     6.0640 hc         1 U3T       0.044200
     32 H14          5.9950    -4.2290     4.0380 hc         1 U3T       0.015700
     33 H15          6.2060    -5.7790     4.8420 hc         1 U3T       0.015700
     34 H16          7.5900    -4.6870     6.5940 hc         1 U3T       0.017200
     35 H17          8.2540    -4.5860     4.8890 hc         1 U3T       0.017200
@<TRIPOS>BOND
     1     1     2 3   
     2     1    19 1   
     3     2     3 1   
     4     3    16 1   
     5     3    20 1   
     6     3    21 1   
     7     4     5 ar  
     8     4     9 ar  
     9     4    16 1   
    10     5     6 ar  
    11     5    22 1   
    12     6     7 ar  
    13     6    23 1   
    14     7     8 ar  
    15     7    24 1   
    16     8     9 ar  
    17     8    25 1   
    18     9    10 1   
    19    10    11 1   
    20    10    26 1   
    21    10    27 1   
    22    11    12 1   
    23    11    28 1   
    24    11    29 1   
    25    12    13 1   
    26    12    30 1   
    27    12    31 1   
    28    13    14 1   
    29    13    32 1   
    30    13    33 1   
    31    14    15 1   
    32    14    34 1   
    33    14    35 1   
    34    15    17 1   
    35    15    18 1   
@<TRIPOS>SUBSTRUCTURE
     1 U3T         1 TEMP              0 ****  ****    0 ROOT
