@<TRIPOS>MOLECULE
U3U
   21    21     1     0     0
SMALL
abcg2


@<TRIPOS>ATOM
      1 C10         21.0160    17.9080   -15.6700 cc         1 U3U       0.195700
      2 C13         20.3830    17.6470   -13.3560 c          1 U3U       0.533500
      3 C12         21.2020    18.2410   -14.3600 cd         1 U3U      -0.346200
      4 C02         19.3780    16.6960   -13.8280 cc         1 U3U       0.038900
      5 C03         19.2320    16.4180   -15.1550 cd         1 U3U      -0.037200
      6 C04         18.2020    15.4750   -15.6910 c          1 U3U       0.617300
      7 C07         17.0460    14.4000   -18.5120 c3         1 U3U       0.125900
      8 N05         17.6360    15.9060   -16.8500 ns         1 U3U      -0.391400
      9 N09         20.0680    17.0400   -16.0610 na         1 U3U      -0.615000
     10 O01         18.6040    16.1630   -12.8720 oh         1 U3U      -0.492100
     11 O06         16.5940    15.1730   -17.3840 os         1 U3U      -0.231100
     12 O08         17.9400    14.4120   -15.1550 o          1 U3U      -0.510100
     13 O14         20.4450    17.8720   -12.1280 o          1 U3U      -0.584100
     14 BR11        22.0860    18.6400   -17.0480 br         1 U3U      -0.029700
     15 H121        21.9660    18.9500   -14.0780 ha         1 U3U       0.229000
     16 H072        16.1640    13.8670   -18.8600 h1         1 U3U       0.047033
     17 H073        17.4240    15.0580   -19.2960 h1         1 U3U       0.047033
     18 H071        17.8180    13.6940   -18.2030 h1         1 U3U       0.047033
     19 H051        17.6030    16.8880   -17.0950 hn         1 U3U       0.330500
     20 H1          20.0000    16.7820   -17.0370 hn         1 U3U       0.526000
     21 H2          18.9250    16.5800   -12.0430 ho         1 U3U       0.500000
@<TRIPOS>BOND
     1     1     3 2   
     2     1     9 1   
     3     1    14 1   
     4     2     3 1   
     5     2     4 1   
     6     2    13 2   
     7     3    15 1   
     8     4     5 2   
     9     4    10 1   
    10     5     6 1   
    11     5     9 1   
    12     6     8 1   
    13     6    12 2   
    14     7    11 1   
    15     7    16 1   
    16     7    17 1   
    17     7    18 1   
    18     8    11 1   
    19     8    19 1   
    20     9    20 1   
    21    10    21 1   
@<TRIPOS>SUBSTRUCTURE
     1 U3U         1 TEMP              0 ****  ****    0 ROOT
