@<TRIPOS>MOLECULE
U3U
   21    21     1     0     0
SMALL
No Charge or Current Charge


@<TRIPOS>ATOM
      1 C10         21.0100    18.2730   -15.5910 cc         1 U3U       0.195700
      2 C13         20.5210    17.4200   -13.3110 c          1 U3U       0.533500
      3 C12         21.2650    18.2260   -14.2500 cd         1 U3U      -0.346200
      4 C02         19.4200    16.6210   -13.8830 cc         1 U3U       0.038900
      5 C03         19.1040    16.6310   -15.2420 cd         1 U3U      -0.037200
      6 C04         17.9520    15.7950   -15.7820 c          1 U3U       0.617300
      7 C07         16.9570    14.0880   -18.3890 c3         1 U3U       0.125900
      8 N05         17.7200    15.9660   -17.1450 ns         1 U3U      -0.391400
      9 N09         19.9570    17.4690   -16.0370 na         1 U3U      -0.615000
     10 O01         18.7620    15.9000   -12.9350 oh         1 U3U      -0.492100
     11 O06         16.5800    15.3080   -17.7280 os         1 U3U      -0.231100
     12 O08         17.2650    15.0250   -15.1210 o          1 U3U      -0.510100
     13 O14         20.7930    17.4090   -12.1140 o          1 U3U      -0.584100
     14 Br11        22.0010    19.3230   -16.8020 br         1 U3U      -0.029700
     15 H121        22.0650    18.8080   -13.8110 ha         1 U3U       0.229000
     16 H072        16.0760    13.6040   -18.8270 h1         1 U3U       0.047033
     17 H073        17.6740    14.2880   -19.1960 h1         1 U3U       0.047033
     18 H071        17.4160    13.3870   -17.6810 h1         1 U3U       0.047033
     19 H051        18.1710    16.6730   -17.7120 hn         1 U3U       0.330500
     20 H1          19.8110    17.4950   -17.0460 hn         1 U3U       0.526000
     21 H2          19.2110    16.1020   -12.0800 ho         1 U3U       0.500000
@<TRIPOS>BOND
     1     1     3 2   
     2     1     9 1   
     3     1    14 1   
     4     2     3 1   
     5     2     4 1   
     6     2    13 2   
     7     3    15 1   
     8     4     5 2   
     9     4    10 1   
    10     5     6 1   
    11     5     9 1   
    12     6     8 1   
    13     6    12 2   
    14     7    11 1   
    15     7    16 1   
    16     7    17 1   
    17     7    18 1   
    18     8    11 1   
    19     8    19 1   
    20     9    20 1   
    21    10    21 1   
@<TRIPOS>SUBSTRUCTURE
     1 U3U         1 TEMP              0 ****  ****    0 ROOT
