@<TRIPOS>MOLECULE
U3V
   72    74     1     0     0
SMALL
abcg2


@<TRIPOS>ATOM
      1 C19         13.9630    -7.3990    19.7090 cc         1 U3V      -0.200000
      2 C17         12.7310    -7.2980    20.3190 cd         1 U3V      -0.213600
      3 C18         14.7960    -7.9970    20.6710 cc         1 U3V       0.258300
      4 C12         12.8150    -7.6770     7.8730 c          1 U3V       0.575000
      5 C16         11.4790    -6.6290    19.8790 c          1 U3V       0.642700
      6 C8          10.3900    -8.1260    13.0350 c          1 U3V       0.588100
      7 C13         11.3360    -7.6550     7.5580 c6         1 U3V      -0.157400
      8 C14         10.4340    -7.1010     8.6540 c6         1 U3V      -0.075400
      9 C15         11.0610    -5.8620     9.2700 c6         1 U3V      -0.080400
     10 C3          10.2540    -5.6840    16.7140 c6         1 U3V      -0.091900
     11 C4          11.8550    -7.5830    16.4590 c6         1 U3V      -0.091900
     12 C1           9.8810    -6.2110    18.0930 c6         1 U3V       0.098500
     13 C2          11.4240    -8.0620    17.8370 c6         1 U3V       0.098500
     14 C11         12.4440    -6.1940     9.8300 c6         1 U3V       0.044700
     15 C5          10.7330    -6.7960    15.7810 c6         1 U3V      -0.059700
     16 C21         17.0620    -7.0210    20.7930 c3         1 U3V      -0.080433
     17 C22         16.5710    -8.8390    19.1520 c3         1 U3V      -0.080433
     18 C23         16.6790    -9.3580    21.5910 c3         1 U3V      -0.080433
     19 C9           9.4160   -10.3380    13.3340 c3         1 U3V       0.092300
     20 C6          11.1460    -6.1980    14.4410 c3         1 U3V      -0.084400
     21 C7          11.5670    -7.2050    13.3690 c3         1 U3V       0.040700
     22 C20         16.2650    -8.3120    20.5570 c3         1 U3V      -0.069300
     23 N6          14.1110    -8.2410    21.7760 nd         1 U3V      -0.512800
     24 N5          12.8740    -7.8100    21.5580 na         1 U3V       0.164800
     25 N4          13.2580    -6.8320     8.8270 ns         1 U3V      -0.486900
     26 N1          10.9980    -6.9460    18.6660 n          1 U3V      -0.400800
     27 N2          11.9590    -6.4750    12.1870 ns         1 U3V      -0.495900
     28 O4          10.9610    -5.7990    20.6190 o          1 U3V      -0.599100
     29 O1           9.4260    -7.7100    12.4100 o          1 U3V      -0.607100
     30 H26         14.2190    -7.0730    18.7140 ha         1 U3V       0.143000
     31 H21         11.2380    -7.0370     6.6590 hc         1 U3V       0.071200
     32 H20         11.0390    -8.6640     7.2680 hc         1 U3V       0.071200
     33 H23          9.4570    -6.8590     8.2330 hc         1 U3V       0.061200
     34 H22         10.2600    -7.8560     9.4230 hc         1 U3V       0.061200
     35 H25         11.1740    -5.0800     8.5150 hc         1 U3V       0.057200
     36 H24         10.4320    -5.4550    10.0610 hc         1 U3V       0.057200
     37 H5          11.0400    -4.9290    16.8210 hc         1 U3V       0.050450
     38 H6           9.3850    -5.1810    16.2840 hc         1 U3V       0.050450
     39 H7          12.1390    -8.4590    15.8730 hc         1 U3V       0.050450
     40 H8          12.7500    -6.9580    16.5450 hc         1 U3V       0.050450
     41 H2           9.6010    -5.3950    18.7530 h1         1 U3V       0.059700
     42 H1           9.0200    -6.8830    18.0190 h1         1 U3V       0.059700
     43 H4          10.5730    -8.7450    17.7320 h1         1 U3V       0.059700
     44 H3          12.2170    -8.6220    18.3230 h1         1 U3V       0.059700
     45 H18         12.9410    -5.2680    10.1300 h1         1 U3V       0.063700
     46 H9           9.8920    -7.4830    15.6240 hc         1 U3V       0.059700
     47 H28         16.8700    -6.6170    21.7880 hc         1 U3V       0.036478
     48 H27         18.1340    -7.2130    20.7070 hc         1 U3V       0.036478
     49 H29         16.8020    -6.2530    20.0630 hc         1 U3V       0.036478
     50 H32         15.9960    -9.7390    18.9260 hc         1 U3V       0.036478
     51 H31         16.3470    -8.0970    18.3830 hc         1 U3V       0.036478
     52 H30         17.6310    -9.0860    19.0650 hc         1 U3V       0.036478
     53 H33         16.4930    -9.0160    22.6100 hc         1 U3V       0.036478
     54 H35         16.1400   -10.2960    21.4500 hc         1 U3V       0.036478
     55 H34         17.7470    -9.5690    21.4980 hc         1 U3V       0.036478
     56 H16          9.6970   -11.2530    13.8460 h1         1 U3V       0.042033
     57 H17          8.4720    -9.9870    13.7500 h1         1 U3V       0.042033
     58 H15          9.2620   -10.5660    12.2780 h1         1 U3V       0.042033
     59 H11         11.9770    -5.5040    14.6020 hc         1 U3V       0.056700
     60 H10         10.3150    -5.6070    14.0440 hc         1 U3V       0.056700
     61 H12         12.4200    -7.7880    13.7310 h1         1 U3V       0.067700
     62 H19         14.2480    -6.8830     9.0220 hn         1 U3V       0.314500
     63 H13         11.8110    -5.4780    12.1730 hn         1 U3V       0.320500
     64 C24         11.8900    -7.9080    22.6130 c3         1 U3V       0.073900
     65 N3          10.4660    -9.3660    13.5260 ns         1 U3V      -0.491900
     66 C10         12.3010    -7.1040    11.0530 c          1 U3V       0.570100
     67 O3          13.5890    -8.3650     7.2210 o          1 U3V      -0.561000
     68 O2          12.4530    -8.3120    10.9870 o          1 U3V      -0.587100
     69 H36         12.1440    -8.7590    23.2380 h1         1 U3V       0.062033
     70 H38         11.8790    -7.0060    23.2220 h1         1 U3V       0.062033
     71 H37         10.9000    -8.0650    22.1970 h1         1 U3V       0.062033
     72 H14         11.3310    -9.6800    13.9330 hn         1 U3V       0.317500
@<TRIPOS>BOND
     1     1     2 2   
     2     1     3 1   
     3     1    30 1   
     4     2     5 1   
     5     2    24 1   
     6     3    22 1   
     7     3    23 2   
     8     4     7 1   
     9     4    25 1   
    10     4    67 2   
    11     5    26 1   
    12     5    28 2   
    13     6    21 1   
    14     6    29 2   
    15     6    65 1   
    16     7     8 1   
    17     7    31 1   
    18     7    32 1   
    19     8     9 1   
    20     8    33 1   
    21     8    34 1   
    22     9    14 1   
    23     9    35 1   
    24     9    36 1   
    25    10    12 1   
    26    10    15 1   
    27    10    37 1   
    28    10    38 1   
    29    11    13 1   
    30    11    15 1   
    31    11    39 1   
    32    11    40 1   
    33    12    26 1   
    34    12    41 1   
    35    12    42 1   
    36    13    26 1   
    37    13    43 1   
    38    13    44 1   
    39    14    25 1   
    40    14    45 1   
    41    14    66 1   
    42    15    20 1   
    43    15    46 1   
    44    16    22 1   
    45    16    47 1   
    46    16    48 1   
    47    16    49 1   
    48    17    22 1   
    49    17    50 1   
    50    17    51 1   
    51    17    52 1   
    52    18    22 1   
    53    18    53 1   
    54    18    54 1   
    55    18    55 1   
    56    19    56 1   
    57    19    57 1   
    58    19    58 1   
    59    19    65 1   
    60    20    21 1   
    61    20    59 1   
    62    20    60 1   
    63    21    27 1   
    64    21    61 1   
    65    23    24 1   
    66    24    64 1   
    67    25    62 1   
    68    27    63 1   
    69    27    66 1   
    70    64    69 1   
    71    64    70 1   
    72    64    71 1   
    73    65    72 1   
    74    66    68 2   
@<TRIPOS>SUBSTRUCTURE
     1 U3V         1 TEMP              0 ****  ****    0 ROOT
