@<TRIPOS>MOLECULE
U3V
   72    74     1     0     0
SMALL
No Charge or Current Charge


@<TRIPOS>ATOM
      1 C19         13.9060    -7.6510    19.7970 cc         1 U3V      -0.200000
      2 C17         12.7590    -7.4740    20.5230 cd         1 U3V      -0.213600
      3 C18         14.8880    -8.1500    20.6680 cc         1 U3V       0.258300
      4 C12         13.8450    -6.9650     8.1840 c          1 U3V       0.575000
      5 C16         11.4550    -6.9090    20.0590 c          1 U3V       0.642700
      6 C8           9.5020    -8.3140    13.1280 c          1 U3V       0.588100
      7 C13         12.5690    -7.4910     7.5000 c6         1 U3V      -0.157400
      8 C14         11.2890    -7.4370     8.3710 c6         1 U3V      -0.075400
      9 C15         11.2020    -6.0720     9.0810 c6         1 U3V      -0.080400
     10 C3          10.3570    -5.5200    16.6710 c6         1 U3V      -0.091900
     11 C4          11.7090    -7.6060    16.2970 c6         1 U3V      -0.091900
     12 C1          10.1800    -5.9140    18.1570 c6         1 U3V       0.098500
     13 C2          11.4990    -7.9850    17.7810 c6         1 U3V       0.098500
     14 C11         12.4340    -5.8560    10.0080 c6         1 U3V       0.044700
     15 C5          10.5270    -6.7590    15.7610 c6         1 U3V      -0.059700
     16 C21         16.9900    -7.1830    19.6820 c3         1 U3V      -0.080433
     17 C22         16.2590    -9.5300    19.0720 c3         1 U3V      -0.080433
     18 C23         17.1720    -9.0460    21.3700 c3         1 U3V      -0.080433
     19 C9           8.2670   -10.2730    14.1070 c3         1 U3V       0.092300
     20 C6          10.7170    -6.3320    14.2710 c3         1 U3V      -0.084400
     21 C7          10.8090    -7.4680    13.2120 c3         1 U3V       0.040700
     22 C20         16.3080    -8.4740    20.2090 c3         1 U3V      -0.069300
     23 N6          14.4460    -8.2820    21.9040 nd         1 U3V      -0.512800
     24 N5          13.1290    -7.8450    21.8220 na         1 U3V       0.164800
     25 N4          13.7070    -6.2220     9.3360 ns         1 U3V      -0.486900
     26 N1          11.2650    -6.8000    18.6620 n          1 U3V      -0.400800
     27 N2          11.0970    -6.8840    11.8830 ns         1 U3V      -0.495900
     28 O4          10.5990    -6.5230    20.8440 o          1 U3V      -0.599100
     29 O1           8.6180    -8.0910    12.3090 o          1 U3V      -0.607100
     30 H26         14.0700    -7.4230    18.7500 ha         1 U3V       0.143000
     31 H21         12.4150    -6.8380     6.6320 hc         1 U3V       0.071200
     32 H20         12.7610    -8.4890     7.0850 hc         1 U3V       0.071200
     33 H23         10.4000    -7.6010     7.7450 hc         1 U3V       0.061200
     34 H22         11.3060    -8.2480     9.1130 hc         1 U3V       0.061200
     35 H25         11.1930    -5.2810     8.3180 hc         1 U3V       0.057200
     36 H24         10.2510    -5.9620     9.6180 hc         1 U3V       0.057200
     37 H5          11.2350    -4.8650    16.5770 hc         1 U3V       0.050450
     38 H6           9.4910    -4.9270    16.3470 hc         1 U3V       0.050450
     39 H7          11.8290    -8.5260    15.7100 hc         1 U3V       0.050450
     40 H8          12.6490    -7.0470    16.1950 hc         1 U3V       0.050450
     41 H2          10.1430    -4.9970    18.7630 h1         1 U3V       0.059700
     42 H1           9.2150    -6.4270    18.2840 h1         1 U3V       0.059700
     43 H4          10.6140    -8.6350    17.8500 h1         1 U3V       0.059700
     44 H3          12.3420    -8.5950    18.1230 h1         1 U3V       0.059700
     45 H18         12.4800    -4.7760    10.2100 h1         1 U3V       0.063700
     46 H9           9.6020    -7.3490    15.8190 hc         1 U3V       0.059700
     47 H28         17.0190    -6.4130    20.4630 hc         1 U3V       0.036478
     48 H27         18.0210    -7.3830    19.3640 hc         1 U3V       0.036478
     49 H29         16.4490    -6.7700    18.8210 hc         1 U3V       0.036478
     50 H32         15.7580   -10.4440    19.4130 hc         1 U3V       0.036478
     51 H31         15.7130    -9.1520    18.1990 hc         1 U3V       0.036478
     52 H30         17.2700    -9.8000    18.7410 hc         1 U3V       0.036478
     53 H33         17.2540    -8.3240    22.1920 hc         1 U3V       0.036478
     54 H35         16.7330    -9.9690    21.7690 hc         1 U3V       0.036478
     55 H34         18.1870    -9.2790    21.0280 hc         1 U3V       0.036478
     56 H16          8.4420   -11.0070    14.9030 h1         1 U3V       0.042033
     57 H17          7.3560    -9.7030    14.3340 h1         1 U3V       0.042033
     58 H15          8.1400   -10.7980    13.1510 h1         1 U3V       0.042033
     59 H11         11.6250    -5.7190    14.1970 hc         1 U3V       0.056700
     60 H10          9.8910    -5.6700    13.9800 hc         1 U3V       0.056700
     61 H12         11.6290    -8.1500    13.4700 h1         1 U3V       0.067700
     62 H19         14.5750    -5.9420     9.7790 hn         1 U3V       0.314500
     63 H13         10.3210    -6.7760    11.2400 hn         1 U3V       0.320500
     64 C24         12.2780    -7.8300    23.0230 c3         1 U3V       0.073900
     65 N3           9.4090    -9.3610    14.0210 ns         1 U3V      -0.491900
     66 C10         12.3430    -6.4870    11.4390 c          1 U3V       0.570100
     67 O3          14.9560    -7.2350     7.7560 o          1 U3V      -0.561000
     68 O2          13.3320    -6.5920    12.1540 o          1 U3V      -0.587100
     69 H36         12.8110    -8.2850    23.8670 h1         1 U3V       0.062033
     70 H38         12.0200    -6.7950    23.2740 h1         1 U3V       0.062033
     71 H37         11.3610    -8.3980    22.8270 h1         1 U3V       0.062033
     72 H14         10.1870    -9.4990    14.6550 hn         1 U3V       0.317500
@<TRIPOS>BOND
     1     1     2 2   
     2     1     3 1   
     3     1    30 1   
     4     2     5 1   
     5     2    24 1   
     6     3    22 1   
     7     3    23 2   
     8     4     7 1   
     9     4    25 1   
    10     4    67 2   
    11     5    26 1   
    12     5    28 2   
    13     6    21 1   
    14     6    29 2   
    15     6    65 1   
    16     7     8 1   
    17     7    31 1   
    18     7    32 1   
    19     8     9 1   
    20     8    33 1   
    21     8    34 1   
    22     9    14 1   
    23     9    35 1   
    24     9    36 1   
    25    10    12 1   
    26    10    15 1   
    27    10    37 1   
    28    10    38 1   
    29    11    13 1   
    30    11    15 1   
    31    11    39 1   
    32    11    40 1   
    33    12    26 1   
    34    12    41 1   
    35    12    42 1   
    36    13    26 1   
    37    13    43 1   
    38    13    44 1   
    39    14    25 1   
    40    14    45 1   
    41    14    66 1   
    42    15    20 1   
    43    15    46 1   
    44    16    22 1   
    45    16    47 1   
    46    16    48 1   
    47    16    49 1   
    48    17    22 1   
    49    17    50 1   
    50    17    51 1   
    51    17    52 1   
    52    18    22 1   
    53    18    53 1   
    54    18    54 1   
    55    18    55 1   
    56    19    56 1   
    57    19    57 1   
    58    19    58 1   
    59    19    65 1   
    60    20    21 1   
    61    20    59 1   
    62    20    60 1   
    63    21    27 1   
    64    21    61 1   
    65    23    24 1   
    66    24    64 1   
    67    25    62 1   
    68    27    63 1   
    69    27    66 1   
    70    64    69 1   
    71    64    70 1   
    72    64    71 1   
    73    65    72 1   
    74    66    68 2   
@<TRIPOS>SUBSTRUCTURE
     1 U3V         1 TEMP              0 ****  ****    0 ROOT
