@<TRIPOS>MOLECULE
U3W
   25    26     1     0     0
SMALL
No Charge or Current Charge


@<TRIPOS>ATOM
      1 C02          2.5220    -7.6280     7.6630 c          1 U3W       0.575600
      2 C05          1.9490   -11.3790     6.5360 c3         1 U3W       0.110300
      3 C06          0.8410    -9.2360     7.1730 c          1 U3W       0.619000
      4 C08          0.1250    -6.9400     7.8320 c3         1 U3W       0.164300
      5 C09         -0.2440    -6.1270     6.5970 ca         1 U3W      -0.126300
      6 C10          0.4210    -4.9160     6.3180 ca         1 U3W      -0.085500
      7 C11          0.0840    -4.1710     5.1740 ca         1 U3W      -0.117000
      8 C12         -0.9180    -4.6310     4.3030 ca         1 U3W      -0.097000
      9 C13         -1.5830    -5.8380     4.5760 ca         1 U3W      -0.117000
     10 C14         -1.2470    -6.5840     5.7190 ca         1 U3W      -0.085500
     11 N04          2.0040    -9.9690     6.9610 n          1 U3W      -0.327100
     12 N07          1.1690    -7.9470     7.5610 n          1 U3W      -0.381400
     13 O01          2.9750    -6.5420     7.9960 o          1 U3W      -0.479000
     14 O15         -0.2950    -9.6680     7.0390 o          1 U3W      -0.535000
     15 S03          3.4900    -9.1140     7.2250 ss         1 U3W      -0.035900
     16 H1           1.4160   -11.9730     7.2890 h1         1 U3W       0.057367
     17 H2           1.4240   -11.4570     5.5760 h1         1 U3W       0.057367
     18 H3           2.9650   -11.7750     6.4220 h1         1 U3W       0.057367
     19 H4           0.4710    -6.2630     8.6250 h1         1 U3W       0.076200
     20 H5          -0.7730    -7.4380     8.2210 h1         1 U3W       0.076200
     21 H6           1.1990    -4.5520     6.9850 ha         1 U3W       0.125000
     22 H7           0.6010    -3.2370     4.9640 ha         1 U3W       0.115000
     23 H8          -1.1770    -4.0530     3.4180 ha         1 U3W       0.113000
     24 H9          -2.3580    -6.1960     3.9020 ha         1 U3W       0.115000
     25 H10         -1.7670    -7.5190     5.9210 ha         1 U3W       0.125000
@<TRIPOS>BOND
     1     1    12 1   
     2     1    13 2   
     3     1    15 1   
     4     2    11 1   
     5     2    16 1   
     6     2    17 1   
     7     2    18 1   
     8     3    11 1   
     9     3    12 1   
    10     3    14 2   
    11     4     5 1   
    12     4    12 1   
    13     4    19 1   
    14     4    20 1   
    15     5     6 ar  
    16     5    10 ar  
    17     6     7 ar  
    18     6    21 1   
    19     7     8 ar  
    20     7    22 1   
    21     8     9 ar  
    22     8    23 1   
    23     9    10 ar  
    24     9    24 1   
    25    10    25 1   
    26    11    15 1   
@<TRIPOS>SUBSTRUCTURE
     1 U3W         1 TEMP              0 ****  ****    0 ROOT
