@<TRIPOS>MOLECULE
U3W
   25    26     1     0     0
SMALL
bcc


@<TRIPOS>ATOM
      1 C02          2.3980    -7.6400     7.6970 c          1 U3W       0.718100
      2 C05          1.9660   -11.3300     6.5660 c3         1 U3W       0.110300
      3 C06          0.7620    -9.2420     7.1660 c          1 U3W       0.828500
      4 C08          0.0390    -6.9470     7.8180 c3         1 U3W       0.164300
      5 C09         -0.2550    -6.1330     6.5860 ca         1 U3W      -0.126300
      6 C10          0.4080    -4.9300     6.3580 ca         1 U3W      -0.103500
      7 C11          0.1530    -4.1920     5.2100 ca         1 U3W      -0.135000
      8 C12         -0.7700    -4.6490     4.2790 ca         1 U3W      -0.115000
      9 C13         -1.4410    -5.8440     4.5030 ca         1 U3W      -0.135000
     10 C14         -1.1840    -6.5810     5.6510 ca         1 U3W      -0.103500
     11 N04          1.9030    -9.9380     6.9540 n          1 U3W      -0.394100
     12 N07          1.0760    -7.9480     7.5810 n          1 U3W      -0.515400
     13 O01          2.8790    -6.5880     8.0290 o          1 U3W      -0.554500
     14 O15         -0.3680    -9.6570     7.0250 o          1 U3W      -0.610500
     15 S03          3.3380    -9.0720     7.2740 ss         1 U3W      -0.035900
     16 H1           2.3650   -11.9430     7.3740 h1         1 U3W       0.057367
     17 H2           0.9620   -11.6700     6.3280 h1         1 U3W       0.057367
     18 H3           2.5910   -11.4470     5.6820 h1         1 U3W       0.057367
     19 H4           0.3710    -6.3120     8.6380 h1         1 U3W       0.076200
     20 H5          -0.8490    -7.4760     8.1590 h1         1 U3W       0.076200
     21 H6           1.1250    -4.5650     7.0820 ha         1 U3W       0.143000
     22 H7           0.6740    -3.2580     5.0440 ha         1 U3W       0.133000
     23 H8          -0.9700    -4.0730     3.3850 ha         1 U3W       0.131000
     24 H9          -2.1680    -6.2020     3.7850 ha         1 U3W       0.133000
     25 H10         -1.7110    -7.5120     5.8230 ha         1 U3W       0.143000
@<TRIPOS>BOND
     1     1    12 1   
     2     1    13 2   
     3     1    15 1   
     4     2    11 1   
     5     2    16 1   
     6     2    17 1   
     7     2    18 1   
     8     3    11 1   
     9     3    12 1   
    10     3    14 2   
    11     4     5 1   
    12     4    12 1   
    13     4    19 1   
    14     4    20 1   
    15     5     6 ar  
    16     5    10 ar  
    17     6     7 ar  
    18     6    21 1   
    19     7     8 ar  
    20     7    22 1   
    21     8     9 ar  
    22     8    23 1   
    23     9    10 ar  
    24     9    24 1   
    25    10    25 1   
    26    11    15 1   
@<TRIPOS>SUBSTRUCTURE
     1 U3W         1 TEMP              0 ****  ****    0 ROOT
