@<TRIPOS>MOLECULE
U3Y
   63    67     1     0     0
SMALL
bcc


@<TRIPOS>ATOM
      1 C19          8.0030   -11.6210    14.4440 ca         1 U3Y      -0.099000
      2 C21          6.1390   -10.2040    15.0010 ca         1 U3Y      -0.099000
      3 C18          8.8350   -10.8230    15.2090 ca         1 U3Y      -0.095000
      4 C22          6.9680    -9.4220    15.7840 ca         1 U3Y      -0.095000
      5 C7          13.4140   -10.1780    18.7830 cc         1 U3Y      -0.140400
      6 C20          6.6510   -11.3110    14.3260 ca         1 U3Y      -0.123500
      7 C17          8.3240    -9.7170    15.8780 ca         1 U3Y      -0.125600
      8 C6          13.5110    -8.9840    19.4270 cd         1 U3Y       0.282800
      9 C23          5.7520   -12.1220    13.5150 cc         1 U3Y       0.452000
     10 C5          12.0540    -8.3850    17.9000 cc         1 U3Y       0.414700
     11 C13         10.5510    -6.9610    10.0190 c          1 U3Y       0.721500
     12 C14         12.7570    -7.8130     9.3730 c          1 U3Y       0.834500
     13 C16          9.1860    -8.9020    16.7860 c          1 U3Y       0.680700
     14 C12         11.2610    -5.8500    10.7450 c6         1 U3Y      -0.174400
     15 C4          11.9250    -6.6500    16.0720 c5         1 U3Y      -0.100400
     16 C2          10.5180    -8.1130    14.8170 c5         1 U3Y       0.085000
     17 C1          11.1530    -7.5110    17.0790 c5         1 U3Y       0.079400
     18 C11         12.6160    -6.2940    11.2710 c6         1 U3Y       0.037700
     19 C3          11.9160    -7.4910    14.8030 c5         1 U3Y       0.094700
     20 C9          15.1110    -7.1220    22.2620 c3         1 U3Y       0.096300
     21 N10          6.0840   -13.1670    12.7510 na         1 U3Y      -0.159400
     22 N2          12.7350    -7.9810    18.9160 nd         1 U3Y      -0.643000
     23 N7           4.4540   -11.9590    13.3910 nd         1 U3Y      -0.382000
     24 N9           4.9980   -13.6390    12.1670 nc         1 U3Y      -0.199800
     25 N8           4.0310   -12.9060    12.5590 nd         1 U3Y      -0.038000
     26 N6          13.3280    -6.8980    10.1850 ns         1 U3Y      -0.551900
     27 N5          11.3570    -7.8640     9.3650 n          1 U3Y      -0.511400
     28 N1          10.2810    -8.3260    16.2420 n          1 U3Y      -0.490800
     29 N4          12.1930    -6.7130    13.6230 ns         1 U3Y      -0.565900
     30 O4           9.3420    -7.0290     9.9790 o          1 U3Y      -0.594500
     31 O3          13.3990    -8.5460     8.6450 o          1 U3Y      -0.623500
     32 O5           8.9120    -8.7920    17.9690 o          1 U3Y      -0.563100
     33 S1          12.3090   -10.0460    17.4900 ss         1 U3Y      -0.128300
     34 H21          8.4280   -12.4840    13.9480 ha         1 U3Y       0.148500
     35 H22          5.0900    -9.9550    14.9180 ha         1 U3Y       0.148500
     36 H20          9.8830   -11.0840    15.2930 ha         1 U3Y       0.149000
     37 H23          6.5580    -8.5710    16.3110 ha         1 U3Y       0.149000
     38 H7          13.9210   -11.1030    19.0090 h4         1 U3Y       0.201000
     39 H15         11.4060    -5.0290    10.0370 hc         1 U3Y       0.089200
     40 H14         10.6140    -5.4790    11.5390 hc         1 U3Y       0.089200
     41 H5          12.9250    -6.4000    16.4200 hc         1 U3Y       0.069200
     42 H6          11.3780    -5.7180    15.9100 hc         1 U3Y       0.069200
     43 H3           9.7890    -7.4150    14.3960 h1         1 U3Y       0.067200
     44 H2          10.4800    -9.0370    14.2460 h1         1 U3Y       0.067200
     45 H1          10.5790    -6.8840    17.7630 h1         1 U3Y       0.103700
     46 H13         13.1720    -5.4190    11.6080 h1         1 U3Y       0.079700
     47 H4          12.6620    -8.2870    14.8820 h1         1 U3Y       0.087700
     48 H19          9.6860    -8.9240     8.7330 h1         1 U3Y       0.057033
     49 H17         10.9610    -8.8010     7.5180 h1         1 U3Y       0.057033
     50 H18         11.1460    -9.9000     8.8940 h1         1 U3Y       0.057033
     51 H10         14.9430    -6.0640    22.4400 h1         1 U3Y       0.040367
     52 H11         14.8190    -7.6720    23.1580 h1         1 U3Y       0.040367
     53 H9          16.1770    -7.2790    22.0980 h1         1 U3Y       0.040367
     54 H24          6.9810   -13.6000    12.5800 hn         1 U3Y       0.337700
     55 H16         14.3320    -6.9600    10.2560 hn         1 U3Y       0.337500
     56 H8          13.7130    -6.8510    20.6870 hn         1 U3Y       0.337500
     57 H12         12.1700    -5.7070    13.6980 hn         1 U3Y       0.320500
     58 C8          14.3850    -8.7550    20.6070 c          1 U3Y       0.597600
     59 C10         12.4410    -7.2800    12.4340 c          1 U3Y       0.631100
     60 C15         10.7580    -8.9350     8.5790 c3         1 U3Y       0.088300
     61 N3          14.3340    -7.5190    21.1130 ns         1 U3Y      -0.558900
     62 O1          15.0890    -9.6490    21.0570 o          1 U3Y      -0.604100
     63 O2          12.4840    -8.4850    12.2580 o          1 U3Y      -0.575100
@<TRIPOS>BOND
     1     1     3 ar  
     2     1     6 ar  
     3     1    34 1   
     4     2     4 ar  
     5     2     6 ar  
     6     2    35 1   
     7     3     7 ar  
     8     3    36 1   
     9     4     7 ar  
    10     4    37 1   
    11     5     8 2   
    12     5    33 1   
    13     5    38 1   
    14     6     9 1   
    15     7    13 1   
    16     8    22 1   
    17     8    58 1   
    18     9    21 1   
    19     9    23 2   
    20    10    17 1   
    21    10    22 2   
    22    10    33 1   
    23    11    14 1   
    24    11    27 1   
    25    11    30 2   
    26    12    26 1   
    27    12    27 1   
    28    12    31 2   
    29    13    28 1   
    30    13    32 2   
    31    14    18 1   
    32    14    39 1   
    33    14    40 1   
    34    15    17 1   
    35    15    19 1   
    36    15    41 1   
    37    15    42 1   
    38    16    19 1   
    39    16    28 1   
    40    16    43 1   
    41    16    44 1   
    42    17    28 1   
    43    17    45 1   
    44    18    26 1   
    45    18    46 1   
    46    18    59 1   
    47    19    29 1   
    48    19    47 1   
    49    20    51 1   
    50    20    52 1   
    51    20    53 1   
    52    20    61 1   
    53    21    24 1   
    54    21    54 1   
    55    23    25 1   
    56    24    25 2   
    57    26    55 1   
    58    27    60 1   
    59    29    57 1   
    60    29    59 1   
    61    48    60 1   
    62    49    60 1   
    63    50    60 1   
    64    56    61 1   
    65    58    61 1   
    66    58    62 2   
    67    59    63 2   
@<TRIPOS>SUBSTRUCTURE
     1 U3Y         1 TEMP              0 ****  ****    0 ROOT
