@<TRIPOS>MOLECULE
U3Y
   63    67     1     0     0
SMALL
No Charge or Current Charge


@<TRIPOS>ATOM
      1 C19          7.4820   -11.7360    14.7360 ca         1 U3Y      -0.081000
      2 C21          5.6190   -10.6410    15.8400 ca         1 U3Y      -0.081000
      3 C18          8.3700   -10.8250    15.3350 ca         1 U3Y      -0.077000
      4 C22          6.5070    -9.7320    16.4390 ca         1 U3Y      -0.077000
      5 C7          13.4250   -10.2470    18.5850 cc         1 U3Y      -0.202000
      6 C20          6.0920   -11.6510    14.9740 ca         1 U3Y      -0.123500
      7 C17          7.8900    -9.7970    16.1740 ca         1 U3Y      -0.125600
      8 C6          13.5540    -9.0310    19.2230 cd         1 U3Y       0.217500
      9 C23          5.1510   -12.5980    14.3550 cc         1 U3Y       0.452000
     10 C5          12.0300    -8.4910    17.6660 cc         1 U3Y       0.414700
     11 C13         11.1950    -6.7150     9.6650 c          1 U3Y       0.579000
     12 C14         13.5860    -7.1480     9.2170 c          1 U3Y       0.625000
     13 C16          8.8260    -8.8220    16.8520 c          1 U3Y       0.613700
     14 C12         11.5860    -5.6780    10.7100 c6         1 U3Y      -0.174400
     15 C4          11.7840    -6.9090    15.6870 c5         1 U3Y      -0.100400
     16 C2          10.0040    -8.1620    14.7000 c5         1 U3Y       0.085000
     17 C1          11.0600    -7.6350    16.8650 c5         1 U3Y       0.079400
     18 C11         12.9280    -6.0180    11.3970 c6         1 U3Y       0.037700
     19 C3          11.5090    -7.8620    14.4990 c5         1 U3Y       0.094700
     20 C9          15.3370    -7.1770    22.0420 c3         1 U3Y       0.096300
     21 N10          5.4690   -13.6120    13.4970 na         1 U3Y      -0.209700
     22 N2          12.7450    -8.0220    18.6840 nd         1 U3Y      -0.643000
     23 N7           3.8430   -12.6370    14.5170 nd         1 U3Y      -0.382000
     24 N9           4.3530   -14.2870    13.1220 nc         1 U3Y      -0.199800
     25 N8           3.3810   -13.6810    13.7500 nd         1 U3Y      -0.038000
     26 N6          13.8920    -6.5360    10.4060 ns         1 U3Y      -0.484900
     27 N5          12.2260    -7.2770     8.8990 n          1 U3Y      -0.377400
     28 N1           9.9850    -8.4030    16.1640 n          1 U3Y      -0.423800
     29 N4          11.6110    -7.0420    13.2830 ns         1 U3Y      -0.498900
     30 O4          10.0230    -7.0330     9.5200 o          1 U3Y      -0.519000
     31 O3          14.4780    -7.5850     8.5110 o          1 U3Y      -0.548000
     32 O5           8.6320    -8.4750    18.0100 o          1 U3Y      -0.563100
     33 S1          12.2800   -10.1760    17.2780 ss         1 U3Y       0.016600
     34 H21          7.8910   -12.5120    14.0930 ha         1 U3Y       0.130500
     35 H22          4.5550   -10.5540    16.0550 ha         1 U3Y       0.130500
     36 H20          9.4380   -10.9400    15.1620 ha         1 U3Y       0.131000
     37 H23          6.1160    -8.9640    17.1040 ha         1 U3Y       0.131000
     38 H7          13.9320   -11.1770    18.8040 h4         1 U3Y       0.183000
     39 H15         11.7990    -4.7740    10.1230 hc         1 U3Y       0.089200
     40 H14         10.7520    -5.4320    11.3780 hc         1 U3Y       0.089200
     41 H5          12.8540    -6.7520    15.8690 hc         1 U3Y       0.069200
     42 H6          11.3380    -5.9200    15.5240 hc         1 U3Y       0.069200
     43 H3           9.3670    -7.3040    14.4460 h1         1 U3Y       0.067200
     44 H2           9.6860    -9.0190    14.0970 h1         1 U3Y       0.067200
     45 H1          10.6280    -6.8910    17.5480 h1         1 U3Y       0.103700
     46 H13         13.3350    -5.0720    11.7810 h1         1 U3Y       0.079700
     47 H4          12.1270    -8.7720    14.5080 h1         1 U3Y       0.087700
     48 H19         10.8860    -7.8240     7.3230 h1         1 U3Y       0.057033
     49 H17         12.6010    -8.0280     6.9320 h1         1 U3Y       0.057033
     50 H18         11.8040    -9.1760     8.0470 h1         1 U3Y       0.057033
     51 H10         15.1500    -6.1160    22.2480 h1         1 U3Y       0.040367
     52 H11         15.0830    -7.7690    22.9310 h1         1 U3Y       0.040367
     53 H9          16.3990    -7.3180    21.8010 h1         1 U3Y       0.040367
     54 H24          6.3900   -13.8610    13.1620 hn         1 U3Y       0.388000
     55 H16         14.8800    -6.4990    10.6310 hn         1 U3Y       0.337500
     56 H8          13.8970    -6.9400    20.4600 hn         1 U3Y       0.337500
     57 H12         10.8280    -6.5570    12.8620 hn         1 U3Y       0.320500
     58 C8          14.5030    -8.8850    20.3870 c          1 U3Y       0.530600
     59 C10         12.8500    -6.9190    12.6740 c          1 U3Y       0.564100
     60 C15         11.8580    -8.1250     7.7340 c3         1 U3Y       0.088300
     61 N3          14.5140    -7.6090    20.9110 ns         1 U3Y      -0.491900
     62 O1          15.2040    -9.7830    20.8440 o          1 U3Y      -0.604100
     63 O2          13.8530    -7.4570    13.1280 o          1 U3Y      -0.575100
@<TRIPOS>BOND
     1     1     3 ar  
     2     1     6 ar  
     3     1    34 1   
     4     2     4 ar  
     5     2     6 ar  
     6     2    35 1   
     7     3     7 ar  
     8     3    36 1   
     9     4     7 ar  
    10     4    37 1   
    11     5     8 2   
    12     5    33 1   
    13     5    38 1   
    14     6     9 1   
    15     7    13 1   
    16     8    22 1   
    17     8    58 1   
    18     9    21 1   
    19     9    23 2   
    20    10    17 1   
    21    10    22 2   
    22    10    33 1   
    23    11    14 1   
    24    11    27 1   
    25    11    30 2   
    26    12    26 1   
    27    12    27 1   
    28    12    31 2   
    29    13    28 1   
    30    13    32 2   
    31    14    18 1   
    32    14    39 1   
    33    14    40 1   
    34    15    17 1   
    35    15    19 1   
    36    15    41 1   
    37    15    42 1   
    38    16    19 1   
    39    16    28 1   
    40    16    43 1   
    41    16    44 1   
    42    17    28 1   
    43    17    45 1   
    44    18    26 1   
    45    18    46 1   
    46    18    59 1   
    47    19    29 1   
    48    19    47 1   
    49    20    51 1   
    50    20    52 1   
    51    20    53 1   
    52    20    61 1   
    53    21    24 1   
    54    21    54 1   
    55    23    25 1   
    56    24    25 2   
    57    26    55 1   
    58    27    60 1   
    59    29    57 1   
    60    29    59 1   
    61    48    60 1   
    62    49    60 1   
    63    50    60 1   
    64    56    61 1   
    65    58    61 1   
    66    58    62 2   
    67    59    63 2   
@<TRIPOS>SUBSTRUCTURE
     1 U3Y         1 TEMP              0 ****  ****    0 ROOT
