@<TRIPOS>MOLECULE
U3Z
   67    71     1     0     0
SMALL
No Charge or Current Charge


@<TRIPOS>ATOM
      1 C11          0.0000     0.0000     0.0000 c          1 U3Z       0.580600
      2 C13          0.0000     0.0000     0.0000 ca         1 U3Z      -0.157600
      3 C14          0.0000     0.0000     0.0000 ca         1 U3Z      -0.036000
      4 C15          0.0000     0.0000     0.0000 ca         1 U3Z      -0.113300
      5 C16          0.0000     0.0000     0.0000 c3         1 U3Z       0.230300
      6 C21          0.0000     0.0000     0.0000 ca         1 U3Z      -0.080000
      7 C22          0.0010     0.0000     0.0000 ca         1 U3Z      -0.118300
      8 C23          0.0000     0.0000     0.0000 c5         1 U3Z       0.453000
      9 C26          0.0010     0.0000     0.0000 cx         1 U3Z      -0.117000
     10 C27          0.0000     0.0000     0.0000 cx         1 U3Z      -0.115900
     11 C28          0.0000     0.0000     0.0000 cx         1 U3Z      -0.115900
     12 O30          0.0000     0.0000     0.0000 oh         1 U3Z      -0.662000
     13 C31          0.0000     0.0000     0.0000 ca         1 U3Z      -0.078300
     14 C36          0.0000     0.0000     0.0000 ca         1 U3Z      -0.111000
     15 C37          0.0000     0.0000     0.0000 ca         1 U3Z      -0.071500
     16 C01          0.0000     0.0000     0.0000 ca         1 U3Z      -0.098000
     17 C02          0.0000     0.0000     0.0000 ca         1 U3Z      -0.090500
     18 C03          0.0000     0.0000     0.0000 ca         1 U3Z       0.030000
     19 C04          0.0000     0.0000     0.0000 cg         1 U3Z      -0.127000
     20 C05          0.0000     0.0000     0.0000 c1         1 U3Z      -0.226000
     21 C06          0.0000     0.0000     0.0000 ca         1 U3Z      -0.090500
     22 C07          0.0000     0.0000     0.0000 ca         1 U3Z      -0.098000
     23 C08          0.0000     0.0000     0.0000 ca         1 U3Z      -0.087300
     24 N10          0.0000     0.0000     0.0000 n          1 U3Z      -0.441800
     25 O12          0.0000     0.0000     0.0000 o          1 U3Z      -0.529000
     26 C17          0.0000     0.0000     0.0000 c3         1 U3Z      -0.101100
     27 C18          0.0000     0.0000     0.0000 c3         1 U3Z      -0.101100
     28 O19          0.0000     0.0000     0.0000 oh         1 U3Z      -0.653000
     29 C20          0.0000     0.0000     0.0000 ca         1 U3Z      -0.090000
     30 O24          0.0000     0.0000     0.0000 os         1 U3Z      -0.454000
     31 C29          0.0000     0.0000     0.0000 c3         1 U3Z       0.196600
     32 C32          0.0000     0.0000     0.0000 ca         1 U3Z      -0.071500
     33 C33          0.0000     0.0000     0.0000 ca         1 U3Z      -0.111000
     34 C34          0.0000     0.0000     0.0000 ca         1 U3Z       0.131000
     35 Cl1          0.0000     0.0000     0.0000 cl         1 U3Z      -0.204000
     36 H1           0.0000     0.0000     0.0000 ha         1 U3Z       0.146000
     37 H2           0.0000     0.0000     0.0000 ha         1 U3Z       0.131000
     38 H3           0.0000     0.0000     0.0000 h1         1 U3Z       0.045700
     39 H4           0.0000     0.0000     0.0000 h1         1 U3Z       0.045700
     40 H5           0.0000     0.0000     0.0000 hc         1 U3Z       0.075700
     41 H6           0.0000     0.0000     0.0000 hc         1 U3Z       0.075700
     42 H7           0.0000     0.0000     0.0000 hc         1 U3Z       0.075700
     43 H8           0.0000     0.0000     0.0000 hc         1 U3Z       0.075700
     44 H9           0.0000     0.0000     0.0000 ho         1 U3Z       0.442000
     45 H10          0.0000     0.0000     0.0000 ha         1 U3Z       0.130000
     46 H11          0.0000     0.0000     0.0000 ha         1 U3Z       0.128500
     47 H12          0.0000     0.0000     0.0000 ha         1 U3Z       0.114500
     48 H13          0.0000     0.0000     0.0000 ha         1 U3Z       0.119500
     49 H14          0.0000     0.0000     0.0000 ha         1 U3Z       0.257000
     50 H15          0.0000     0.0000     0.0000 ha         1 U3Z       0.119500
     51 H16          0.0000     0.0000     0.0000 ha         1 U3Z       0.114500
     52 H17          0.0000     0.0000     0.0000 h1         1 U3Z       0.069200
     53 H18          0.0000     0.0000     0.0000 h1         1 U3Z       0.069200
     54 H19          0.0000     0.0000     0.0000 hc         1 U3Z       0.045700
     55 H20          0.0000     0.0000     0.0000 hc         1 U3Z       0.045700
     56 H21          0.0000     0.0000     0.0000 hc         1 U3Z       0.045700
     57 H22          0.0000     0.0000     0.0000 hc         1 U3Z       0.045700
     58 H23          0.0000     0.0000     0.0000 hc         1 U3Z       0.045700
     59 H24          0.0000     0.0000     0.0000 hc         1 U3Z       0.045700
     60 H25          0.0000     0.0000     0.0000 ho         1 U3Z       0.446000
     61 H26          0.0000     0.0000     0.0000 ha         1 U3Z       0.116000
     62 H27          0.0000     0.0000     0.0000 h1         1 U3Z       0.026700
     63 H28          0.0000     0.0000     0.0000 h1         1 U3Z       0.026700
     64 H29          0.0000     0.0000     0.0000 ha         1 U3Z       0.128500
     65 H30          0.0000     0.0000     0.0000 ha         1 U3Z       0.130000
     66 C25          0.0000     0.0000     0.0000 c3         1 U3Z       0.196600
     67 C09          0.0000     0.0000     0.0000 c3         1 U3Z       0.150300
@<TRIPOS>BOND
     1     1     2 1   
     2     1    24 1   
     3     1    25 2   
     4     2     3 ar  
     5     2     7 ar  
     6     3     4 ar  
     7     3    36 1   
     8     4     5 1   
     9     4    29 ar  
    10     5    26 1   
    11     5    27 1   
    12     5    28 1   
    13     6     7 ar  
    14     6    29 ar  
    15     6    37 1   
    16     7     8 1   
    17     8    13 1   
    18     8    24 1   
    19     8    30 1   
    20     9    10 1   
    21     9    11 1   
    22     9    31 1   
    23     9    66 1   
    24    10    11 1   
    25    10    40 1   
    26    10    41 1   
    27    11    42 1   
    28    11    43 1   
    29    12    31 1   
    30    12    44 1   
    31    13    15 ar  
    32    13    32 ar  
    33    14    15 ar  
    34    14    34 ar  
    35    14    45 1   
    36    15    46 1   
    37    16    17 ar  
    38    16    23 ar  
    39    16    47 1   
    40    17    18 ar  
    41    17    48 1   
    42    18    19 1   
    43    18    21 ar  
    44    19    20 3   
    45    20    49 1   
    46    21    22 ar  
    47    21    50 1   
    48    22    23 ar  
    49    22    51 1   
    50    23    67 1   
    51    24    67 1   
    52    26    54 1   
    53    26    55 1   
    54    26    56 1   
    55    27    57 1   
    56    27    58 1   
    57    27    59 1   
    58    28    60 1   
    59    29    61 1   
    60    30    66 1   
    61    31    62 1   
    62    31    63 1   
    63    32    33 ar  
    64    32    64 1   
    65    33    34 ar  
    66    33    65 1   
    67    34    35 1   
    68    38    66 1   
    69    39    66 1   
    70    52    67 1   
    71    53    67 1   
@<TRIPOS>SUBSTRUCTURE
     1 U3Z         1 TEMP              0 ****  ****    0 ROOT
