@<TRIPOS>MOLECULE
U3Z
   67    71     1     0     0
SMALL
bcc


@<TRIPOS>ATOM
      1 C11        -23.4360    -7.7540    14.4240 c          1 U3Z       0.723100
      2 C13        -22.6630    -6.7860    13.6160 ca         1 U3Z      -0.157600
      3 C14        -22.8710    -5.4270    13.4470 ca         1 U3Z      -0.054000
      4 C15        -21.9800    -4.7140    12.6530 ca         1 U3Z      -0.113300
      5 C16        -22.1610    -3.2160    12.4150 c3         1 U3Z       0.207100
      6 C21        -20.7260    -6.7640    12.2130 ca         1 U3Z      -0.098000
      7 C22        -21.6180    -7.4480    13.0150 ca         1 U3Z      -0.118300
      8 C23        -21.6680    -8.9210    13.3600 c5         1 U3Z       0.429800
      9 C26        -18.9040    -9.5110    15.6830 cx         1 U3Z      -0.117000
     10 C27        -17.5420    -9.3450    15.0780 cx         1 U3Z      -0.115900
     11 C28        -17.8410    -8.7540    16.4220 cx         1 U3Z      -0.115900
     12 O30        -20.2250   -10.7670    17.2120 oh         1 U3Z      -0.599800
     13 C31        -21.9080    -9.7650    12.1140 ca         1 U3Z      -0.078300
     14 C36        -23.1510   -10.1220    10.0730 ca         1 U3Z      -0.129000
     15 C37        -22.8660    -9.3580    11.1910 ca         1 U3Z      -0.089500
     16 C01        -22.7450   -12.5400    14.5430 ca         1 U3Z      -0.116000
     17 C02        -22.9960   -13.6990    13.8260 ca         1 U3Z      -0.108500
     18 C03        -23.9550   -13.7000    12.8140 ca         1 U3Z       0.030000
     19 C04        -24.2010   -14.8780    12.0480 cg         1 U3Z      -0.127000
     20 C05        -24.4080   -15.8660    11.3930 c1         1 U3Z      -0.138500
     21 C06        -24.6690   -12.5260    12.5510 ca         1 U3Z      -0.108500
     22 C07        -24.4180   -11.3810    13.2800 ca         1 U3Z      -0.116000
     23 C08        -23.4430   -11.3690    14.2740 ca         1 U3Z      -0.087300
     24 N10        -22.8300    -8.9640    14.2550 n          1 U3Z      -0.508800
     25 O12        -24.4130    -7.5250    15.1090 o          1 U3Z      -0.604500
     26 C17        -20.8780    -2.4560    12.7590 c3         1 U3Z      -0.101100
     27 C18        -22.5430    -2.9850    10.9540 c3         1 U3Z      -0.101100
     28 O19        -23.2360    -2.7120    13.1810 oh         1 U3Z      -0.590800
     29 C20        -20.9180    -5.3990    12.0470 ca         1 U3Z      -0.108000
     30 O24        -20.5170    -9.4000    13.9660 os         1 U3Z      -0.407600
     31 C29        -19.2650   -10.8840    16.1810 c3         1 U3Z       0.173400
     32 C32        -21.2240   -10.9520    11.8910 ca         1 U3Z      -0.089500
     33 C33        -21.5040   -11.7330    10.7780 ca         1 U3Z      -0.129000
     34 C34        -22.4680   -11.3120     9.8800 ca         1 U3Z       0.039400
     35 CL1        -22.8280   -12.2890     8.4940 cl         1 U3Z      -0.112400
     36 H1         -23.7140    -4.9430    13.9210 ha         1 U3Z       0.164000
     37 H2         -19.9000    -7.2660    11.7230 ha         1 U3Z       0.149000
     38 H3         -19.6570    -7.7080    14.8090 h1         1 U3Z       0.045700
     39 H4         -20.8150    -8.5490    15.8420 h1         1 U3Z       0.045700
     40 H5         -16.8950   -10.2120    15.0300 hc         1 U3Z       0.075700
     41 H6         -17.4450    -8.6720    14.2340 hc         1 U3Z       0.075700
     42 H7         -17.4070    -9.2250    17.2960 hc         1 U3Z       0.075700
     43 H8         -17.9340    -7.6780    16.5000 hc         1 U3Z       0.075700
     44 H9         -20.5800   -11.6420    17.3930 ho         1 U3Z       0.403000
     45 H10        -23.9010    -9.7940     9.3660 ha         1 U3Z       0.148000
     46 H11        -23.4160    -8.4370    11.3380 ha         1 U3Z       0.146500
     47 H12        -21.9810   -12.5440    15.3120 ha         1 U3Z       0.132500
     48 H13        -22.4380   -14.6010    14.0420 ha         1 U3Z       0.137500
     49 H14        -24.5880   -16.7420    10.8120 ha         1 U3Z       0.169500
     50 H15        -25.4150   -12.5160    11.7680 ha         1 U3Z       0.137500
     51 H16        -24.9730   -10.4780    13.0590 ha         1 U3Z       0.132500
     52 H17        -24.0320    -9.8510    15.6510 h1         1 U3Z       0.069200
     53 H18        -22.3510   -10.3160    15.7770 h1         1 U3Z       0.069200
     54 H19        -20.5980    -2.6120    13.8030 hc         1 U3Z       0.045700
     55 H20        -20.0370    -2.7680    12.1410 hc         1 U3Z       0.045700
     56 H21        -21.0260    -1.3870    12.6000 hc         1 U3Z       0.045700
     57 H22        -22.6680    -1.9190    10.7570 hc         1 U3Z       0.045700
     58 H23        -21.7700    -3.3610    10.2850 hc         1 U3Z       0.045700
     59 H24        -23.4760    -3.4940    10.7090 hc         1 U3Z       0.045700
     60 H25        -22.9630    -2.6690    14.1050 ho         1 U3Z       0.407000
     61 H26        -20.2190    -4.8580    11.4210 ha         1 U3Z       0.134000
     62 H27        -19.6490   -11.4890    15.3510 h1         1 U3Z       0.026700
     63 H28        -18.3550   -11.3820    16.5400 h1         1 U3Z       0.026700
     64 H29        -20.4750   -11.2990    12.5870 ha         1 U3Z       0.146500
     65 H30        -20.9750   -12.6630    10.6220 ha         1 U3Z       0.148000
     66 C25        -20.0250    -8.6990    15.0980 c3         1 U3Z       0.173400
     67 C09        -23.1540   -10.1200    15.0620 c3         1 U3Z       0.150300
@<TRIPOS>BOND
     1     1     2 1   
     2     1    24 1   
     3     1    25 2   
     4     2     3 ar  
     5     2     7 ar  
     6     3     4 ar  
     7     3    36 1   
     8     4     5 1   
     9     4    29 ar  
    10     5    26 1   
    11     5    27 1   
    12     5    28 1   
    13     6     7 ar  
    14     6    29 ar  
    15     6    37 1   
    16     7     8 1   
    17     8    13 1   
    18     8    24 1   
    19     8    30 1   
    20     9    10 1   
    21     9    11 1   
    22     9    31 1   
    23     9    66 1   
    24    10    11 1   
    25    10    40 1   
    26    10    41 1   
    27    11    42 1   
    28    11    43 1   
    29    12    31 1   
    30    12    44 1   
    31    13    15 ar  
    32    13    32 ar  
    33    14    15 ar  
    34    14    34 ar  
    35    14    45 1   
    36    15    46 1   
    37    16    17 ar  
    38    16    23 ar  
    39    16    47 1   
    40    17    18 ar  
    41    17    48 1   
    42    18    19 1   
    43    18    21 ar  
    44    19    20 3   
    45    20    49 1   
    46    21    22 ar  
    47    21    50 1   
    48    22    23 ar  
    49    22    51 1   
    50    23    67 1   
    51    24    67 1   
    52    26    54 1   
    53    26    55 1   
    54    26    56 1   
    55    27    57 1   
    56    27    58 1   
    57    27    59 1   
    58    28    60 1   
    59    29    61 1   
    60    30    66 1   
    61    31    62 1   
    62    31    63 1   
    63    32    33 ar  
    64    32    64 1   
    65    33    34 ar  
    66    33    65 1   
    67    34    35 1   
    68    38    66 1   
    69    39    66 1   
    70    52    67 1   
    71    53    67 1   
@<TRIPOS>SUBSTRUCTURE
     1 U3Z         1 TEMP              0 ****  ****    0 ROOT
