@<TRIPOS>MOLECULE
U40
   66    71     1     0     0
SMALL
abcg2


@<TRIPOS>ATOM
      1 OAN         41.3310   -59.1520    30.1760 o          1 U40      -0.501000
      2 CAM         41.5390   -58.7670    29.0440 c          1 U40       0.564000
      3 NAL         42.7140   -58.8370    28.3560 ns         1 U40      -0.482500
      4 CAJ         42.6190   -58.2990    27.0620 c          1 U40       0.616000
      5 OAK         43.5320   -58.2420    26.2580 o          1 U40      -0.543000
      6 NAI         41.3430   -57.8810    26.9210 ns         1 U40      -0.526900
      7 CAF         40.5220   -58.1010    28.1080 c5         1 U40       0.038400
      8 CAG         39.3390   -59.0440    27.8390 c6         1 U40      -0.095900
      9 CAH         38.2640   -58.3610    27.0000 c6         1 U40       0.099500
     10 CAE         40.0120   -56.7890    28.7220 c6         1 U40      -0.095900
     11 CAD         38.9210   -56.1530    27.8640 c6         1 U40       0.099500
     12 NAC         37.8410   -57.1060    27.6170 n          1 U40      -0.414800
     13 CAB         36.5480   -56.8990    27.9340 c          1 U40       0.613700
     14 OAA         35.6590   -57.7350    27.7620 o          1 U40      -0.585100
     15 CAO         36.1800   -55.5590    28.5130 ca         1 U40      -0.093600
     16 CAP         35.8910   -55.4540    29.8450 ca         1 U40      -0.119000
     17 CAX         36.0590   -54.4150    27.6800 ca         1 U40      -0.068000
     18 CAW         36.3240   -54.4210    26.2910 ca         1 U40      -0.097000
     19 CAV         36.1960   -53.2700    25.5550 ca         1 U40      -0.102000
     20 CAU         35.8010   -52.0660    26.1760 ca         1 U40      -0.101000
     21 CAT         35.5360   -52.0310    27.5220 ca         1 U40      -0.080000
     22 CAS         35.6570   -53.2010    28.3090 ca         1 U40       0.275000
     23 NAR         35.3820   -53.1230    29.6370 nb         1 U40      -0.661000
     24 CAQ         35.4850   -54.2050    30.3870 cp         1 U40       0.428500
     25 CAY         35.1730   -54.0750    31.8280 cp         1 U40      -0.162500
     26 CBD         34.7550   -55.1700    32.5890 ca         1 U40      -0.077500
     27 CBC         34.4430   -55.0210    33.9350 ca         1 U40      -0.116000
     28 CAZ         35.2770   -52.8320    32.4640 ca         1 U40      -0.077500
     29 CBA         34.9750   -52.6930    33.8090 ca         1 U40      -0.116000
     30 CBB         34.5450   -53.7840    34.5720 ca         1 U40      -0.055300
     31 CBE         34.1940   -53.6320    36.0300 c6         1 U40      -0.021400
     32 CBF         33.0720   -52.6090    36.2680 c6         1 U40      -0.066900
     33 CBG         32.5640   -52.6820    37.7210 c6         1 U40      -0.073400
     34 CBH         33.6780   -53.0750    38.7110 c6         1 U40      -0.074400
     35 CBI         35.0380   -52.5840    38.2190 c6         1 U40      -0.073400
     36 CBJ         35.4280   -53.2630    36.8930 c6         1 U40      -0.066900
     37 H1          43.5710   -59.2280    28.7200 hn         1 U40       0.358500
     38 H2          41.0290   -57.4370    26.0740 hn         1 U40       0.350500
     39 H3          39.6910   -59.9400    27.3250 hc         1 U40       0.074700
     40 H4          38.9170   -59.3430    28.8000 hc         1 U40       0.074700
     41 H5          38.6420   -58.1410    25.9960 h1         1 U40       0.062700
     42 H6          37.3930   -59.0010    26.9000 h1         1 U40       0.062700
     43 H7          39.6100   -57.0110    29.7120 hc         1 U40       0.074700
     44 H8          40.8400   -56.0880    28.8380 hc         1 U40       0.074700
     45 H9          38.5290   -55.2770    28.3690 h1         1 U40       0.062700
     46 H10         39.3270   -55.8270    26.9020 h1         1 U40       0.062700
     47 H11         35.9970   -56.3160    30.4880 ha         1 U40       0.134000
     48 H12         36.6290   -55.3420    25.8110 ha         1 U40       0.120000
     49 H13         36.3990   -53.2830    24.4920 ha         1 U40       0.118000
     50 H14         35.7070   -51.1660    25.5830 ha         1 U40       0.120000
     51 H15         35.2300   -51.1160    28.0120 ha         1 U40       0.133000
     52 H16         34.6430   -56.1430    32.1310 ha         1 U40       0.122500
     53 H17         34.1050   -55.8810    34.5010 ha         1 U40       0.115000
     54 H18         35.6040   -51.9750    31.8910 ha         1 U40       0.122500
     55 H19         35.0760   -51.7200    34.2740 ha         1 U40       0.115000
     56 H20         33.8220   -54.6030    36.3710 hc         1 U40       0.051700
     57 H21         33.4550   -51.6080    36.0520 hc         1 U40       0.041950
     58 H22         32.2490   -52.7840    35.5720 hc         1 U40       0.041950
     59 H23         32.1450   -51.7120    38.0010 hc         1 U40       0.038950
     60 H24         31.7470   -53.4060    37.7870 hc         1 U40       0.038950
     61 H25         33.4570   -52.6730    39.7020 hc         1 U40       0.038700
     62 H26         33.7130   -54.1640    38.8200 hc         1 U40       0.038700
     63 H27         35.8110   -52.7660    38.9690 hc         1 U40       0.038950
     64 H28         34.9920   -51.5000    38.0790 hc         1 U40       0.038950
     65 H29         35.9970   -54.1750    37.0890 hc         1 U40       0.041950
     66 H30         36.0830   -52.6000    36.3240 hc         1 U40       0.041950
@<TRIPOS>BOND
     1     1     2 2   
     2     2     3 1   
     3     2     7 1   
     4     3     4 1   
     5     3    37 1   
     6     4     5 2   
     7     4     6 1   
     8     6     7 1   
     9     6    38 1   
    10     7     8 1   
    11     7    10 1   
    12     8     9 1   
    13     8    39 1   
    14     8    40 1   
    15     9    12 1   
    16     9    41 1   
    17     9    42 1   
    18    10    11 1   
    19    10    43 1   
    20    10    44 1   
    21    11    12 1   
    22    11    45 1   
    23    11    46 1   
    24    12    13 1   
    25    13    14 2   
    26    13    15 1   
    27    15    16 ar  
    28    15    17 ar  
    29    16    24 ar  
    30    16    47 1   
    31    17    18 ar  
    32    17    22 ar  
    33    18    19 ar  
    34    18    48 1   
    35    19    20 ar  
    36    19    49 1   
    37    20    21 ar  
    38    20    50 1   
    39    21    22 ar  
    40    21    51 1   
    41    22    23 ar  
    42    23    24 ar  
    43    24    25 1   
    44    25    26 ar  
    45    25    28 ar  
    46    26    27 ar  
    47    26    52 1   
    48    27    30 ar  
    49    27    53 1   
    50    28    29 ar  
    51    28    54 1   
    52    29    30 ar  
    53    29    55 1   
    54    30    31 1   
    55    31    32 1   
    56    31    36 1   
    57    31    56 1   
    58    32    33 1   
    59    32    57 1   
    60    32    58 1   
    61    33    34 1   
    62    33    59 1   
    63    33    60 1   
    64    34    35 1   
    65    34    61 1   
    66    34    62 1   
    67    35    36 1   
    68    35    63 1   
    69    35    64 1   
    70    36    65 1   
    71    36    66 1   
@<TRIPOS>SUBSTRUCTURE
     1 U40         1 TEMP              0 ****  ****    0 ROOT
