@<TRIPOS>MOLECULE
U40
   66    71     1     0     0
SMALL
No Charge or Current Charge


@<TRIPOS>ATOM
      1 OAN         41.8400   -59.2190    29.7970 o          1 U40      -0.501000
      2 CAM         41.8220   -58.8080    28.6480 c          1 U40       0.564000
      3 NAL         42.8610   -58.8310    27.7880 ns         1 U40      -0.482500
      4 CAJ         42.6730   -58.3400    26.5610 c          1 U40       0.616000
      5 OAK         43.4900   -58.2810    25.6640 o          1 U40      -0.543000
      6 NAI         41.3800   -57.9170    26.5180 ns         1 U40      -0.526900
      7 CAF         40.6730   -58.1480    27.8030 c5         1 U40       0.038400
      8 CAG         39.4540   -59.0980    27.6260 c6         1 U40      -0.095900
      9 CAH         38.3120   -58.4290    26.8260 c6         1 U40       0.099500
     10 CAE         40.1730   -56.8160    28.4310 c6         1 U40      -0.095900
     11 CAD         39.0140   -56.1860    27.6220 c6         1 U40       0.099500
     12 NAC         37.8930   -57.1510    27.4580 n          1 U40      -0.414800
     13 CAB         36.6700   -57.0320    28.1610 c          1 U40       0.613700
     14 OAA         35.9440   -58.0030    28.3340 o          1 U40      -0.585100
     15 CAO         36.2430   -55.6680    28.6540 ca         1 U40      -0.093600
     16 CAP         35.8710   -55.5350    30.0060 ca         1 U40      -0.119000
     17 CAX         36.1760   -54.5070    27.8380 ca         1 U40      -0.068000
     18 CAW         36.4350   -54.5530    26.4470 ca         1 U40      -0.097000
     19 CAV         36.3760   -53.3850    25.6720 ca         1 U40      -0.102000
     20 CAU         36.0480   -52.1610    26.2700 ca         1 U40      -0.101000
     21 CAT         35.7630   -52.1120    27.6440 ca         1 U40      -0.080000
     22 CAS         35.8110   -53.2710    28.4400 ca         1 U40       0.275000
     23 NAR         35.5000   -53.1740    29.7520 nb         1 U40      -0.661000
     24 CAQ         35.4980   -54.2770    30.5310 cp         1 U40       0.428500
     25 CAY         35.1060   -54.0880    31.9740 cp         1 U40      -0.162500
     26 CBD         34.5940   -55.1610    32.7520 ca         1 U40      -0.077500
     27 CBC         34.2310   -54.9810    34.0980 ca         1 U40      -0.116000
     28 CAZ         35.2270   -52.8240    32.6140 ca         1 U40      -0.077500
     29 CBA         34.8650   -52.6460    33.9600 ca         1 U40      -0.116000
     30 CBB         34.3630   -53.7240    34.7150 ca         1 U40      -0.055300
     31 CBE         33.9640   -53.5390    36.1870 c6         1 U40      -0.021400
     32 CBF         32.8900   -52.4350    36.3780 c6         1 U40      -0.066900
     33 CBG         32.3590   -52.3930    37.8410 c6         1 U40      -0.073400
     34 CBH         33.4150   -52.8420    38.8910 c6         1 U40      -0.074400
     35 CBI         34.8540   -52.5270    38.4210 c6         1 U40      -0.073400
     36 CBJ         35.2050   -53.2650    37.0960 c6         1 U40      -0.066900
     37 H1          43.7540   -59.2090    28.0600 hn         1 U40       0.358500
     38 H2          41.0150   -57.5030    25.6690 hn         1 U40       0.350500
     39 H3          39.7670   -60.0220    27.1230 hc         1 U40       0.074700
     40 H4          39.0740   -59.3970    28.6130 hc         1 U40       0.074700
     41 H5          38.6520   -58.2240    25.8010 h1         1 U40       0.062700
     42 H6          37.4630   -59.1230    26.7450 h1         1 U40       0.062700
     43 H7          39.8330   -56.9990    29.4600 hc         1 U40       0.074700
     44 H8          41.0040   -56.1000    28.5050 hc         1 U40       0.074700
     45 H9          38.6860   -55.2720    28.1340 h1         1 U40       0.062700
     46 H10         39.3760   -55.8850    26.6280 h1         1 U40       0.062700
     47 H11         35.9060   -56.4040    30.6540 ha         1 U40       0.134000
     48 H12         36.6710   -55.4870    25.9470 ha         1 U40       0.120000
     49 H13         36.5810   -53.4300    24.6040 ha         1 U40       0.118000
     50 H14         36.0020   -51.2550    25.6710 ha         1 U40       0.120000
     51 H15         35.4930   -51.1630    28.1000 ha         1 U40       0.133000
     52 H16         34.4560   -56.1450    32.3120 ha         1 U40       0.122500
     53 H17         33.8410   -55.8270    34.6600 ha         1 U40       0.115000
     54 H18         35.6170   -51.9690    32.0660 ha         1 U40       0.122500
     55 H19         34.9810   -51.6660    34.4150 ha         1 U40       0.115000
     56 H20         33.5100   -54.4790    36.5320 hc         1 U40       0.051700
     57 H21         33.3170   -51.4560    36.1200 hc         1 U40       0.041950
     58 H22         32.0520   -52.5960    35.6860 hc         1 U40       0.041950
     59 H23         32.0200   -51.3730    38.0670 hc         1 U40       0.038950
     60 H24         31.4710   -53.0340    37.9320 hc         1 U40       0.038950
     61 H25         33.2140   -52.3550    39.8550 hc         1 U40       0.038700
     62 H26         33.3230   -53.9230    39.0680 hc         1 U40       0.038700
     63 H27         35.5770   -52.7980    39.2020 hc         1 U40       0.038950
     64 H28         34.9540   -51.4420    38.2740 hc         1 U40       0.038950
     65 H29         35.6920   -54.2230    37.3250 hc         1 U40       0.041950
     66 H30         35.9540   -52.6720    36.5550 hc         1 U40       0.041950
@<TRIPOS>BOND
     1     1     2 2   
     2     2     3 1   
     3     2     7 1   
     4     3     4 1   
     5     3    37 1   
     6     4     5 2   
     7     4     6 1   
     8     6     7 1   
     9     6    38 1   
    10     7     8 1   
    11     7    10 1   
    12     8     9 1   
    13     8    39 1   
    14     8    40 1   
    15     9    12 1   
    16     9    41 1   
    17     9    42 1   
    18    10    11 1   
    19    10    43 1   
    20    10    44 1   
    21    11    12 1   
    22    11    45 1   
    23    11    46 1   
    24    12    13 1   
    25    13    14 2   
    26    13    15 1   
    27    15    16 ar  
    28    15    17 ar  
    29    16    24 ar  
    30    16    47 1   
    31    17    18 ar  
    32    17    22 ar  
    33    18    19 ar  
    34    18    48 1   
    35    19    20 ar  
    36    19    49 1   
    37    20    21 ar  
    38    20    50 1   
    39    21    22 ar  
    40    21    51 1   
    41    22    23 ar  
    42    23    24 ar  
    43    24    25 1   
    44    25    26 ar  
    45    25    28 ar  
    46    26    27 ar  
    47    26    52 1   
    48    27    30 ar  
    49    27    53 1   
    50    28    29 ar  
    51    28    54 1   
    52    29    30 ar  
    53    29    55 1   
    54    30    31 1   
    55    31    32 1   
    56    31    36 1   
    57    31    56 1   
    58    32    33 1   
    59    32    57 1   
    60    32    58 1   
    61    33    34 1   
    62    33    59 1   
    63    33    60 1   
    64    34    35 1   
    65    34    61 1   
    66    34    62 1   
    67    35    36 1   
    68    35    63 1   
    69    35    64 1   
    70    36    65 1   
    71    36    66 1   
@<TRIPOS>SUBSTRUCTURE
     1 U40         1 TEMP              0 ****  ****    0 ROOT
