@<TRIPOS>MOLECULE
U41
   47    51     1     0     0
SMALL
abcg2


@<TRIPOS>ATOM
      1 C2          65.1190    50.0180    13.2810 c2         1 U41       0.357000
      2 C4          62.9390    50.6130    14.1660 DU         1 U41       0.031000
      3 C5          63.0140    50.8860    15.6830 cx         1 U41      -0.160667
      4 C6          61.7570    51.6210    15.1670 DU         1 U41      -0.109000
      5 C7          62.6040    52.1040    13.9680 cx         1 U41      -0.160667
      6 C8          61.4390    50.3520    14.3410 cx         1 U41      -0.160667
      7 C11         60.1210    51.5300    16.9790 c2         1 U41       0.318000
      8 N13         58.9320    51.0160    16.5730 ns         1 U41      -0.337000
      9 C15         56.7410    50.2550    17.1910 ca         1 U41      -0.127500
     10 C16         55.8910    49.3700    17.8350 ca         1 U41      -0.148500
     11 C17         56.4410    48.3510    18.5870 ca         1 U41       0.082000
     12 C19         57.8080    48.1880    18.6970 ca         1 U41      -0.148500
     13 C21         65.8860    49.0770    12.4040 ca         1 U41      -0.120000
     14 C23         67.9860    48.0170    11.8920 ca         1 U41      -0.128000
     15 C24         67.4090    47.3620    10.8130 ca         1 U41      -0.101000
     16 C27         65.3010    48.4320    11.3180 ca         1 U41      -0.103000
     17 O1          65.6840    50.9230    13.8760 o          1 U41      -0.351000
     18 N3          63.7970    49.7970    13.3800 ns         1 U41      -0.337000
     19 C9          60.7810    52.4490    15.9660 c3         1 U41      -0.076000
     20 C10         61.4620    53.6300    16.6430 c3         1 U41      -0.196000
     21 O12         60.6470    51.2460    18.0390 o          1 U41      -0.333000
     22 C14         58.1240    50.1150    17.2840 ca         1 U41       0.056000
     23 C20         58.6530    49.0690    18.0380 ca         1 U41      -0.127500
     24 C22         67.2360    48.8770    12.6770 ca         1 U41      -0.074000
     25 C25         66.0700    47.5850    10.5360 ca         1 U41      -0.061000
     26 CL26        65.3380    46.7960     9.1780 cl         1 U41      -0.029000
     27 H1          62.8460    50.0310    16.3400 hc         1 U41       0.106500
     28 H2          63.8420    51.5030    16.0290 hc         1 U41       0.106500
     29 H3          63.4010    52.8180    14.1780 hc         1 U41       0.106500
     30 H4          62.0560    52.3650    13.0600 hc         1 U41       0.106500
     31 H5          60.8060    50.4890    13.4610 hc         1 U41       0.106500
     32 H6          61.1590    49.4570    14.9000 hc         1 U41       0.106500
     33 H7          58.5280    51.4070    15.7360 hn         1 U41       0.232000
     34 H8          56.3200    51.0660    16.6110 ha         1 U41       0.145000
     35 H9          54.8180    49.4830    17.7580 ha         1 U41       0.151000
     36 H10         58.2180    47.3730    19.2790 ha         1 U41       0.151000
     37 H11         69.0310    47.8520    12.1160 ha         1 U41       0.142000
     38 H12         67.9950    46.6940    10.1970 ha         1 U41       0.150000
     39 H13         64.2630    48.5960    11.0560 ha         1 U41       0.144000
     40 H14         63.3870    48.9890    12.9390 hn         1 U41       0.238000
     41 H15         60.0260    52.8330    15.2710 hc         1 U41       0.094000
     42 H16         60.7400    54.2480    17.1770 hc         1 U41       0.087333
     43 H17         62.2180    53.3030    17.3560 hc         1 U41       0.087333
     44 H18         61.9510    54.2590    15.9000 hc         1 U41       0.087333
     45 H19         59.7190    48.9190    18.1100 ha         1 U41       0.145000
     46 H20         67.6990    49.3870    13.5110 ha         1 U41       0.159000
     47 F18         55.6260    47.4930    19.2240 f          1 U41      -0.109000
@<TRIPOS>BOND
     1     1    13 1   
     2     1    17 1   
     3     1    18 1   
     4     2     3 1   
     5     2     4 1   
     6     2     5 1   
     7     2     6 1   
     8     2    18 1   
     9     3     4 1   
    10     3    27 1   
    11     3    28 1   
    12     4     5 1   
    13     4     6 1   
    14     4    19 1   
    15     5    29 1   
    16     5    30 1   
    17     6    31 1   
    18     6    32 1   
    19     7     8 1   
    20     7    19 1   
    21     7    21 1   
    22     8    22 1   
    23     8    33 1   
    24     9    10 1   
    25     9    22 1   
    26     9    34 1   
    27    10    11 1   
    28    10    35 1   
    29    11    12 1   
    30    11    47 1   
    31    12    23 1   
    32    12    36 1   
    33    13    16 1   
    34    13    24 1   
    35    14    15 1   
    36    14    24 1   
    37    14    37 1   
    38    15    25 1   
    39    15    38 1   
    40    16    25 1   
    41    16    39 1   
    42    18    40 1   
    43    19    20 1   
    44    19    41 1   
    45    20    42 1   
    46    20    43 1   
    47    20    44 1   
    48    22    23 1   
    49    23    45 1   
    50    24    46 1   
    51    25    26 1   
@<TRIPOS>SUBSTRUCTURE
     1 U41         1 TEMP              0 ****  ****    0 ROOT
