@<TRIPOS>MOLECULE
U42
  164   165     1     0     0
SMALL
abcg2


@<TRIPOS>ATOM
      1 C16        178.0530   200.9880   118.9960 c3         1 U42       0.146600
      2 C18        176.1380   200.1480   120.1300 c          1 U42       0.589100
      3 C19        175.1270   199.0300   120.1430 c3         1 U42      -0.136400
      4 C20        174.0070   199.2330   121.1540 c3         1 U42      -0.071400
      5 C21        173.1260   197.9980   121.3190 c3         1 U42      -0.074400
      6 C22        172.0450   198.2070   122.3780 c3         1 U42      -0.075400
      7 C23        171.2050   196.9670   122.6810 c3         1 U42      -0.074400
      8 C24        170.2120   197.1640   123.8320 c3         1 U42      -0.073400
      9 C25        169.0050   198.0430   123.4820 c3         1 U42      -0.075400
     10 C26        168.2740   198.5940   124.7110 c3         1 U42      -0.072400
     11 C27        167.6090   197.5320   125.6020 c3         1 U42      -0.073400
     12 C28        166.1640   197.1790   125.2330 c3         1 U42      -0.075400
     13 C29        165.1840   198.3430   125.4320 c3         1 U42      -0.074400
     14 C30        163.7510   197.9040   125.7310 c3         1 U42      -0.079400
     15 C31        162.7990   199.0800   125.9410 c3         1 U42      -0.073400
     16 C32        161.3960   198.6590   126.3700 c3         1 U42      -0.091100
     17 C4         178.8180   198.3060   117.0480 c6         1 U42       0.366300
     18 C5         179.2870   198.6820   115.6440 c6         1 U42       0.113300
     19 C6         178.9980   200.1640   115.3320 c6         1 U42       0.171300
     20 C7         178.2270   200.8330   116.4580 c6         1 U42       0.152300
     21 C8         178.9150   200.5800   117.8150 c6         1 U42       0.147300
     22 CAB        150.8190   197.9620   126.7900 c6         1 U42      -0.000800
     23 CAC        149.5010   197.8580   127.5850 c6         1 U42      -0.071400
     24 CAD        150.8840   199.3210   126.0600 ce         1 U42      -0.072200
     25 CAE        148.2760   198.1650   126.7430 c6         1 U42      -0.070400
     26 CAG        150.9000   196.7910   125.7910 c3         1 U42      -0.081600
     27 CAH        149.7580   200.0500   125.8420 c2         1 U42      -0.097400
     28 CAI        148.3710   199.5880   126.2080 c6         1 U42      -0.041200
     29 CAJ        152.1700   199.8490   125.6120 ce         1 U42      -0.152000
     30 CAK        149.7170   201.3950   125.1660 c3         1 U42      -0.058900
     31 CAL        153.3070   199.1780   125.3190 cf         1 U42      -0.188000
     32 CAM        154.5490   199.7520   124.8530 cf         1 U42      -0.055200
     33 CAN        154.7050   201.2450   124.7060 c3         1 U42      -0.057900
     34 CAO        155.5670   198.9000   124.5280 ce         1 U42      -0.193000
     35 CAP        156.8590   199.2690   124.0490 ce         1 U42      -0.162000
     36 CAQ        157.8240   198.3570   123.7440 cf         1 U42      -0.178000
     37 CAR        159.1540   198.6110   123.2720 cf         1 U42      -0.056200
     38 CAS        174.7590   195.4630   118.2130 c3         1 U42      -0.045200
     39 CAT        176.1520   194.8910   117.9510 c3         1 U42      -0.066400
     40 CAU        159.6410   200.0190   123.0480 c3         1 U42      -0.057900
     41 CAV        159.9840   197.5400   123.0660 ce         1 U42      -0.187000
     42 CAW        173.7230   194.5370   118.8230 c2         1 U42      -0.092400
     43 CAX        177.0890   195.9720   117.3770 c3         1 U42      -0.107400
     44 CAY        178.4400   196.1120   118.0930 c3         1 U42       0.197000
     45 CAZ        174.1660   193.1880   119.3000 c3         1 U42      -0.054900
     46 CBA        172.4610   194.9950   118.9530 ce         1 U42      -0.199000
     47 CBB        161.3390   197.6030   122.6450 ce         1 U42      -0.166000
     48 CBC        179.2320   194.8120   118.0540 c3         1 U42      -0.098100
     49 CBD        178.2600   196.6150   119.5240 c3         1 U42      -0.098100
     50 CBE        171.3430   194.3420   119.5780 ce         1 U42      -0.167000
     51 CBF        170.1570   194.9640   119.7810 cf         1 U42      -0.177000
     52 CBG        162.1540   196.5120   122.5540 cf         1 U42      -0.176000
     53 CBH        169.0080   194.4180   120.4560 cf         1 U42      -0.066200
     54 CBI        163.5120   196.5810   122.1390 cf         1 U42      -0.171000
     55 CBJ        167.9330   195.2340   120.6680 ce         1 U42      -0.175000
     56 CBK        169.0650   192.9930   120.9290 c3         1 U42      -0.055900
     57 CBL        164.4060   195.5480   122.0480 ce         1 U42      -0.068200
     58 CBM        166.6990   194.9040   121.3050 cf         1 U42      -0.173000
     59 CBN        165.7060   195.8150   121.5020 ce         1 U42      -0.171000
     60 CBO        164.0770   194.1450   122.4720 c3         1 U42      -0.055900
     61 O1         179.2980   197.0440   117.3560 os         1 U42      -0.473000
     62 O12        180.6840   198.4540   115.4870 oh         1 U42      -0.713000
     63 O13        178.2340   200.3210   114.1390 oh         1 U42      -0.654000
     64 O14        179.3460   199.2270   118.0040 os         1 U42      -0.465000
     65 O15        178.1920   202.2360   116.2060 oh         1 U42      -0.707000
     66 O17        176.9230   200.0900   119.0440 os         1 U42      -0.465100
     67 O2         176.2790   200.9800   120.9990 o          1 U42      -0.481000
     68 H1         178.6190   200.9000   119.9230 h1         1 U42       0.062200
     69 H2         177.7030   202.0170   118.9040 h1         1 U42       0.062200
     70 H3         174.7500   198.8710   119.1310 hc         1 U42       0.068700
     71 H4         175.6900   198.1230   120.3880 hc         1 U42       0.068700
     72 H5         174.4470   199.4900   122.1200 hc         1 U42       0.055700
     73 H6         173.3940   200.0890   120.8550 hc         1 U42       0.055700
     74 H7         172.6610   197.7390   120.3630 hc         1 U42       0.037700
     75 H8         173.7640   197.1480   121.5890 hc         1 U42       0.037700
     76 H9         172.5210   198.5430   123.3070 hc         1 U42       0.039200
     77 H10        171.3970   199.0290   122.0570 hc         1 U42       0.039200
     78 H11        170.6650   196.6540   121.7840 hc         1 U42       0.040200
     79 H12        171.8810   196.1420   122.9300 hc         1 U42       0.040200
     80 H13        169.8610   196.1870   124.1740 hc         1 U42       0.038200
     81 H14        170.7450   197.6100   124.6800 hc         1 U42       0.038200
     82 H15        169.3380   198.8920   122.8790 hc         1 U42       0.037700
     83 H16        168.3150   197.4730   122.8510 hc         1 U42       0.037700
     84 H17        169.0030   199.1530   125.3070 hc         1 U42       0.037200
     85 H18        167.5240   199.3220   124.3920 hc         1 U42       0.037200
     86 H19        168.2140   196.6220   125.6010 hc         1 U42       0.036700
     87 H20        167.6030   197.8880   126.6380 hc         1 U42       0.036700
     88 H21        166.1050   196.8190   124.2000 hc         1 U42       0.040200
     89 H22        165.8480   196.3420   125.8650 hc         1 U42       0.040200
     90 H23        165.5310   198.9620   126.2680 hc         1 U42       0.034200
     91 H24        165.1850   198.9930   124.5520 hc         1 U42       0.034200
     92 H25        163.3760   197.2720   124.9210 hc         1 U42       0.039700
     93 H26        163.7540   197.2810   126.6340 hc         1 U42       0.039700
     94 H27        163.2230   199.7500   126.6970 hc         1 U42       0.032700
     95 H28        162.7380   199.6620   125.0150 hc         1 U42       0.032700
     96 H29        160.7540   199.5270   126.5370 hc         1 U42       0.033367
     97 H30        160.9220   198.0400   125.6080 hc         1 U42       0.033367
     98 H31        161.4290   198.0850   127.3010 hc         1 U42       0.033367
     99 H32        177.7280   198.3430   117.0810 h2         1 U42       0.043700
    100 H33        178.7170   198.0690   114.9370 h1         1 U42       0.046700
    101 H34        179.9630   200.6740   115.2330 h1         1 U42       0.077700
    102 H35        177.2070   200.4400   116.4660 h1         1 U42       0.057700
    103 H36        179.8070   201.2140   117.8320 h1         1 U42       0.088700
    104 H37        149.5450   198.5630   128.4220 hc         1 U42       0.041700
    105 H38        149.4350   196.8540   128.0130 hc         1 U42       0.041700
    106 H39        147.3650   198.0470   127.3330 hc         1 U42       0.042200
    107 H40        148.2050   197.4550   125.9160 hc         1 U42       0.042200
    108 H41        151.9550   198.6940   128.4970 hc         1 U42       0.035200
    109 H42        151.7750   196.9350   128.4350 hc         1 U42       0.035200
    110 H43        152.9350   197.7410   127.3840 hc         1 U42       0.035200
    111 H44        150.8330   195.8410   126.3280 hc         1 U42       0.035200
    112 H45        150.0880   196.8300   125.0650 hc         1 U42       0.035200
    113 H46        151.8360   196.7930   125.2360 hc         1 U42       0.035200
    114 H47        147.9710   200.2930   126.9480 hc         1 U42       0.044700
    115 H48        147.7280   199.7130   125.3300 hc         1 U42       0.044700
    116 H49        152.1980   200.9190   125.4660 ha         1 U42       0.167000
    117 H50        150.6860   201.8450   124.9740 hc         1 U42       0.041033
    118 H51        149.1980   201.3090   124.2050 hc         1 U42       0.041033
    119 H52        149.1280   202.0910   125.7710 hc         1 U42       0.041033
    120 H53        153.3300   198.1000   125.4030 ha         1 U42       0.173000
    121 H54        153.9330   201.7910   125.2420 hc         1 U42       0.042367
    122 H55        155.6710   201.5800   125.0840 hc         1 U42       0.042367
    123 H56        154.6450   201.5410   123.6550 hc         1 U42       0.042367
    124 H57        155.3810   197.8350   124.6380 ha         1 U42       0.169000
    125 H58        157.0670   200.3250   123.9260 ha         1 U42       0.172000
    126 H59        157.5740   197.3070   123.8790 ha         1 U42       0.168000
    127 H61        174.8750   196.3300   118.8760 hc         1 U42       0.044700
    128 H62        174.3600   195.8740   117.2800 hc         1 U42       0.044700
    129 H63        176.0960   194.0470   117.2600 hc         1 U42       0.045700
    130 H64        176.5540   194.4940   118.8830 hc         1 U42       0.045700
    131 H65        158.8400   200.7490   123.1240 hc         1 U42       0.043367
    132 H66        160.4010   200.2800   123.7890 hc         1 U42       0.043367
    133 H67        160.1000   200.1260   122.0640 hc         1 U42       0.043367
    134 H68        159.5850   196.5510   123.2740 ha         1 U42       0.170000
    135 H70        177.2880   195.7790   116.3200 hc         1 U42       0.048200
    136 H71        176.5650   196.9260   117.4290 hc         1 U42       0.048200
    137 H72        173.3430   192.5960   119.6960 hc         1 U42       0.042700
    138 H73        174.6330   192.6220   118.4890 hc         1 U42       0.042700
    139 H74        174.9230   193.2810   120.0860 hc         1 U42       0.042700
    140 H75        172.2610   196.0000   118.5860 ha         1 U42       0.165000
    141 H76        161.7630   198.5730   122.4090 ha         1 U42       0.171000
    142 H77        180.2150   194.9600   118.5030 hc         1 U42       0.047867
    143 H78        178.7180   194.0280   118.6100 hc         1 U42       0.047867
    144 H79        179.3640   194.4810   117.0230 hc         1 U42       0.047867
    145 H80        179.2310   196.7700   119.9940 hc         1 U42       0.047867
    146 H81        177.7020   197.5510   119.5410 hc         1 U42       0.047867
    147 H82        177.7070   195.8860   120.1170 hc         1 U42       0.047867
    148 H83        171.4750   193.3290   119.9410 ha         1 U42       0.173000
    149 H85        170.0580   195.9910   119.4380 ha         1 U42       0.168000
    150 H87        161.7350   195.5450   122.8140 ha         1 U42       0.171000
    151 H88        163.8710   197.5670   121.8520 ha         1 U42       0.169000
    152 H89        168.0220   196.2580   120.3150 ha         1 U42       0.168000
    153 H90        168.1350   192.6700   121.3920 hc         1 U42       0.042700
    154 H91        169.2860   192.3160   120.0990 hc         1 U42       0.042700
    155 H92        169.8670   192.8650   121.6620 hc         1 U42       0.042700
    156 H93        166.5430   193.8820   121.6260 ha         1 U42       0.174000
    157 H94        165.8870   196.8370   121.1810 ha         1 U42       0.169000
    158 H95        163.1040   194.0770   122.9540 hc         1 U42       0.042700
    159 H96        164.0840   193.4620   121.6180 hc         1 U42       0.042700
    160 H97        164.8250   193.7760   123.1780 hc         1 U42       0.042700
    161 H98        180.8540   197.5440   115.7680 ho         1 U42       0.525000
    162 H99        178.7460   199.9660   113.4000 ho         1 U42       0.452000
    163 H100       177.4430   202.6220   116.6760 ho         1 U42       0.508000
    164 CAF        151.9480   197.8290   127.8300 c3         1 U42      -0.081600
@<TRIPOS>BOND
     1     1    21 1   
     2     1    66 1   
     3     1    68 1   
     4     1    69 1   
     5     2     3 1   
     6     2    66 1   
     7     2    67 2   
     8     3     4 1   
     9     3    70 1   
    10     3    71 1   
    11     4     5 1   
    12     4    72 1   
    13     4    73 1   
    14     5     6 1   
    15     5    74 1   
    16     5    75 1   
    17     6     7 1   
    18     6    76 1   
    19     6    77 1   
    20     7     8 1   
    21     7    78 1   
    22     7    79 1   
    23     8     9 1   
    24     8    80 1   
    25     8    81 1   
    26     9    10 1   
    27     9    82 1   
    28     9    83 1   
    29    10    11 1   
    30    10    84 1   
    31    10    85 1   
    32    11    12 1   
    33    11    86 1   
    34    11    87 1   
    35    12    13 1   
    36    12    88 1   
    37    12    89 1   
    38    13    14 1   
    39    13    90 1   
    40    13    91 1   
    41    14    15 1   
    42    14    92 1   
    43    14    93 1   
    44    15    16 1   
    45    15    94 1   
    46    15    95 1   
    47    16    96 1   
    48    16    97 1   
    49    16    98 1   
    50    17    18 1   
    51    17    61 1   
    52    17    64 1   
    53    17    99 1   
    54    18    19 1   
    55    18    62 1   
    56    18   100 1   
    57    19    20 1   
    58    19    63 1   
    59    19   101 1   
    60    20    21 1   
    61    20    65 1   
    62    20   102 1   
    63    21    64 1   
    64    21   103 1   
    65    22    23 1   
    66    22    24 1   
    67    22    26 1   
    68    22   164 1   
    69    23    25 1   
    70    23   104 1   
    71    23   105 1   
    72    24    27 2   
    73    24    29 1   
    74    25    28 1   
    75    25   106 1   
    76    25   107 1   
    77    26   111 1   
    78    26   112 1   
    79    26   113 1   
    80    27    28 1   
    81    27    30 1   
    82    28   114 1   
    83    28   115 1   
    84    29    31 2   
    85    29   116 1   
    86    30   117 1   
    87    30   118 1   
    88    30   119 1   
    89    31    32 1   
    90    31   120 1   
    91    32    33 1   
    92    32    34 2   
    93    33   121 1   
    94    33   122 1   
    95    33   123 1   
    96    34    35 1   
    97    34   124 1   
    98    35    36 2   
    99    35   125 1   
   100    36    37 1   
   101    36   126 1   
   102    37    40 1   
   103    37    41 2   
   104    38    39 1   
   105    38    42 1   
   106    38   127 1   
   107    38   128 1   
   108    39    43 1   
   109    39   129 1   
   110    39   130 1   
   111    40   131 1   
   112    40   132 1   
   113    40   133 1   
   114    41    47 1   
   115    41   134 1   
   116    42    45 1   
   117    42    46 2   
   118    43    44 1   
   119    43   135 1   
   120    43   136 1   
   121    44    48 1   
   122    44    49 1   
   123    44    61 1   
   124    45   137 1   
   125    45   138 1   
   126    45   139 1   
   127    46    50 1   
   128    46   140 1   
   129    47    52 2   
   130    47   141 1   
   131    48   142 1   
   132    48   143 1   
   133    48   144 1   
   134    49   145 1   
   135    49   146 1   
   136    49   147 1   
   137    50    51 2   
   138    50   148 1   
   139    51    53 1   
   140    51   149 1   
   141    52    54 1   
   142    52   150 1   
   143    53    55 2   
   144    53    56 1   
   145    54    57 2   
   146    54   151 1   
   147    55    58 1   
   148    55   152 1   
   149    56   153 1   
   150    56   154 1   
   151    56   155 1   
   152    57    59 1   
   153    57    60 1   
   154    58    59 2   
   155    58   156 1   
   156    59   157 1   
   157    60   158 1   
   158    60   159 1   
   159    60   160 1   
   160    62   161 1   
   161    63   162 1   
   162    65   163 1   
   163   108   164 1   
   164   109   164 1   
   165   110   164 1   
@<TRIPOS>SUBSTRUCTURE
     1 U42         1 TEMP              0 ****  ****    0 ROOT
