@<TRIPOS>MOLECULE
U42
  164   165     1     0     0
SMALL
No Charge or Current Charge


@<TRIPOS>ATOM
      1 C16        178.0190   201.4650   118.9140 c3         1 U42       0.146600
      2 C18        175.6290   201.2390   119.0940 c          1 U42       0.589100
      3 C19        174.4720   200.2480   118.9480 c3         1 U42      -0.136400
      4 C20        174.0380   199.7030   120.3300 c3         1 U42      -0.071400
      5 C21        172.9000   198.6650   120.2560 c3         1 U42      -0.074400
      6 C22        172.4270   198.1970   121.6520 c3         1 U42      -0.075400
      7 C23        171.3060   197.1380   121.5750 c3         1 U42      -0.074400
      8 C24        170.8300   196.5790   122.9350 c3         1 U42      -0.073400
      9 C25        170.1240   197.6130   123.8460 c3         1 U42      -0.075400
     10 C26        169.6320   197.0350   125.1960 c3         1 U42      -0.072400
     11 C27        168.5350   195.9400   125.1080 c3         1 U42      -0.073400
     12 C28        167.2180   196.3560   124.4050 c3         1 U42      -0.075400
     13 C29        166.4850   197.5400   125.0790 c3         1 U42      -0.074400
     14 C30        165.1090   197.8400   124.4480 c3         1 U42      -0.079400
     15 C31        164.3930   199.0410   125.1030 c3         1 U42      -0.073400
     16 C32        163.0030   199.3180   124.5000 c3         1 U42      -0.091100
     17 C4         178.8290   198.4240   117.9370 c6         1 U42       0.366300
     18 C5         179.4770   198.3480   116.5060 c6         1 U42       0.113300
     19 C6         180.0780   199.7300   116.0870 c6         1 U42       0.171300
     20 C7         179.2080   200.8800   116.6600 c6         1 U42       0.152300
     21 C8         179.2580   200.8150   118.2250 c6         1 U42       0.147300
     22 CAB        150.6210   198.5780   127.7720 c6         1 U42      -0.000800
     23 CAC        149.3190   198.7410   128.6070 c6         1 U42      -0.071400
     24 CAD        150.4500   199.4350   126.4290 ce         1 U42      -0.072200
     25 CAE        148.0710   198.4030   127.7740 c6         1 U42      -0.070400
     26 CAG        150.8620   197.0310   127.5070 c3         1 U42      -0.081600
     27 CAH        149.2170   199.7440   125.8920 c2         1 U42      -0.097400
     28 CAI        147.9100   199.3810   126.5980 c6         1 U42      -0.041200
     29 CAJ        151.6820   199.9010   125.7520 ce         1 U42      -0.152000
     30 CAK        148.9370   200.5450   124.5920 c3         1 U42      -0.058900
     31 CAL        152.8530   199.2220   125.5690 cf         1 U42      -0.188000
     32 CAM        154.0550   199.7040   124.8820 cf         1 U42      -0.055200
     33 CAN        154.1910   201.2090   124.6670 c3         1 U42      -0.057900
     34 CAO        155.0310   198.8190   124.5200 ce         1 U42      -0.193000
     35 CAP        156.2960   199.1180   123.8300 ce         1 U42      -0.162000
     36 CAQ        157.2540   198.1840   123.5650 cf         1 U42      -0.178000
     37 CAR        158.5380   198.3930   122.8890 cf         1 U42      -0.056200
     38 CAS        174.5360   195.0110   118.0870 c3         1 U42      -0.045200
     39 CAT        175.6000   195.4440   119.1260 c3         1 U42      -0.066400
     40 CAU        158.7190   199.6860   122.0970 c3         1 U42      -0.057900
     41 CAV        159.4980   197.4210   122.9350 ce         1 U42      -0.187000
     42 CAW        173.3580   194.2670   118.7020 c2         1 U42      -0.092400
     43 CAX        176.7780   196.2160   118.4780 c3         1 U42      -0.107400
     44 CAY        177.9580   196.6010   119.4270 c3         1 U42       0.197000
     45 CAZ        173.7370   192.9040   119.2680 c3         1 U42      -0.054900
     46 CBA        172.1160   194.8020   118.7510 ce         1 U42      -0.199000
     47 CBB        160.8350   197.4570   122.3230 ce         1 U42      -0.166000
     48 CBC        178.6030   195.3570   120.0810 c3         1 U42      -0.098100
     49 CBD        177.5620   197.6340   120.5110 c3         1 U42      -0.098100
     50 CBE        170.9410   194.1870   119.3870 ce         1 U42      -0.167000
     51 CBF        169.7220   194.7930   119.4630 cf         1 U42      -0.177000
     52 CBG        161.7370   196.4430   122.4010 cf         1 U42      -0.176000
     53 CBH        168.5160   194.2980   120.1330 cf         1 U42      -0.066200
     54 CBI        163.0700   196.4850   121.8050 cf         1 U42      -0.171000
     55 CBJ        167.4960   195.1720   120.4000 ce         1 U42      -0.175000
     56 CBK        168.4480   192.8040   120.4520 c3         1 U42      -0.055900
     57 CBL        164.0540   195.5430   121.9120 ce         1 U42      -0.068200
     58 CBM        166.3300   194.8320   121.0270 cf         1 U42      -0.173000
     59 CBN        165.3550   195.7610   121.2490 ce         1 U42      -0.171000
     60 CBO        163.9050   194.2870   122.7670 c3         1 U42      -0.055900
     61 O1         179.0130   197.1510   118.6020 os         1 U42      -0.473000
     62 O12        180.5020   197.3310   116.4460 oh         1 U42      -0.713000
     63 O13        180.1980   199.8210   114.6530 oh         1 U42      -0.654000
     64 O14        179.4740   199.4540   118.7140 os         1 U42      -0.465000
     65 O15        179.6500   202.1600   116.1680 oh         1 U42      -0.707000
     66 O17        176.8150   200.7120   118.6560 os         1 U42      -0.465100
     67 O2         175.5000   202.3680   119.5470 o          1 U42      -0.481000
     68 H1         178.2110   201.5210   119.9940 h1         1 U42       0.062200
     69 H2         177.9240   202.4920   118.5380 h1         1 U42       0.062200
     70 H3         173.6210   200.7650   118.4890 hc         1 U42       0.068700
     71 H4         174.7840   199.4070   118.3170 hc         1 U42       0.068700
     72 H5         174.9020   199.2510   120.8320 hc         1 U42       0.055700
     73 H6         173.7150   200.5440   120.9580 hc         1 U42       0.055700
     74 H7         172.0490   199.0980   119.7150 hc         1 U42       0.037700
     75 H8         173.2410   197.7980   119.6760 hc         1 U42       0.037700
     76 H9         173.2800   197.7800   122.2020 hc         1 U42       0.039200
     77 H10        172.0740   199.0690   122.2150 hc         1 U42       0.039200
     78 H11        170.4470   197.5490   121.0310 hc         1 U42       0.040200
     79 H12        171.6820   196.2970   120.9850 hc         1 U42       0.040200
     80 H13        170.1410   195.7520   122.7290 hc         1 U42       0.038200
     81 H14        171.6870   196.1480   123.4680 hc         1 U42       0.038200
     82 H15        170.8220   198.4290   124.0670 hc         1 U42       0.037700
     83 H16        169.2830   198.0640   123.3060 hc         1 U42       0.037700
     84 H17        170.4930   196.6200   125.7330 hc         1 U42       0.037200
     85 H18        169.2640   197.8610   125.8180 hc         1 U42       0.037200
     86 H19        168.9420   195.0590   124.5980 hc         1 U42       0.036700
     87 H20        168.2950   195.6100   126.1260 hc         1 U42       0.036700
     88 H21        167.4210   196.6010   123.3560 hc         1 U42       0.040200
     89 H22        166.5490   195.4880   124.3930 hc         1 U42       0.040200
     90 H23        166.3500   197.3190   126.1450 hc         1 U42       0.034200
     91 H24        167.1080   198.4400   125.0130 hc         1 U42       0.034200
     92 H25        165.2400   198.0410   123.3770 hc         1 U42       0.039700
     93 H26        164.4730   196.9510   124.5340 hc         1 U42       0.039700
     94 H27        164.2820   198.8560   126.1790 hc         1 U42       0.032700
     95 H28        165.0140   199.9380   124.9940 hc         1 U42       0.032700
     96 H29        162.5450   200.1930   124.9770 hc         1 U42       0.033367
     97 H30        163.0780   199.5130   123.4230 hc         1 U42       0.033367
     98 H31        162.3380   198.4590   124.6520 hc         1 U42       0.033367
     99 H32        177.7610   198.6560   117.8290 h2         1 U42       0.043700
    100 H33        178.6660   198.0950   115.8070 h1         1 U42       0.046700
    101 H34        181.0760   199.8150   116.5460 h1         1 U42       0.077700
    102 H35        178.1700   200.7060   116.3360 h1         1 U42       0.057700
    103 H36        180.1290   201.4030   118.5500 h1         1 U42       0.088700
    104 H37        149.2360   199.7730   128.9750 hc         1 U42       0.041700
    105 H38        149.3500   198.1010   129.5000 hc         1 U42       0.041700
    106 H39        147.1760   198.4490   128.4110 hc         1 U42       0.042200
    107 H40        148.1190   197.3720   127.4020 hc         1 U42       0.042200
    108 H41        151.7350   200.1390   128.9060 hc         1 U42       0.035200
    109 H42        151.8140   198.5400   129.6580 hc         1 U42       0.035200
    110 H43        152.7930   198.8930   128.2380 hc         1 U42       0.035200
    111 H44        150.6880   196.4370   128.4120 hc         1 U42       0.035200
    112 H45        150.1950   196.6480   126.7260 hc         1 U42       0.035200
    113 H46        151.8850   196.8110   127.1880 hc         1 U42       0.035200
    114 H47        147.4480   200.3070   126.9670 hc         1 U42       0.044700
    115 H48        147.1960   198.9530   125.8800 hc         1 U42       0.044700
    116 H49        151.6050   200.9010   125.3260 ha         1 U42       0.167000
    117 H50        149.8130   200.5950   123.9360 hc         1 U42       0.041033
    118 H51        148.1330   200.0840   124.0050 hc         1 U42       0.041033
    119 H52        148.6330   201.5730   124.8230 hc         1 U42       0.041033
    120 H53        152.9090   198.2010   125.9340 ha         1 U42       0.173000
    121 H54        153.6720   201.7840   125.4430 hc         1 U42       0.042367
    122 H55        155.2340   201.5410   124.7090 hc         1 U42       0.042367
    123 H56        153.7820   201.5080   123.6950 hc         1 U42       0.042367
    124 H57        154.8630   197.7640   124.7450 ha         1 U42       0.169000
    125 H58        156.4650   200.1490   123.5220 ha         1 U42       0.172000
    126 H59        157.0610   197.1670   123.9100 ha         1 U42       0.168000
    127 H61        174.1820   195.9070   117.5620 hc         1 U42       0.044700
    128 H62        175.0130   194.3860   117.3220 hc         1 U42       0.044700
    129 H63        175.9800   194.5490   119.6320 hc         1 U42       0.045700
    130 H64        175.1240   196.0690   119.8900 hc         1 U42       0.045700
    131 H65        157.7690   200.0610   121.6990 hc         1 U42       0.043367
    132 H66        159.1570   200.4730   122.7220 hc         1 U42       0.043367
    133 H67        159.3660   199.5520   121.2240 hc         1 U42       0.043367
    134 H68        159.2710   196.5170   123.5020 ha         1 U42       0.170000
    135 H70        177.1800   195.6100   117.6560 hc         1 U42       0.048200
    136 H71        176.3610   197.1190   118.0180 hc         1 U42       0.048200
    137 H72        172.9420   192.1660   119.1150 hc         1 U42       0.042700
    138 H73        174.6360   192.4970   118.7890 hc         1 U42       0.042700
    139 H74        173.9340   192.9700   120.3440 hc         1 U42       0.042700
    140 H75        171.9510   195.7910   118.3210 ha         1 U42       0.165000
    141 H76        161.1300   198.3630   121.7920 ha         1 U42       0.171000
    142 H77        179.5330   195.6290   120.5950 hc         1 U42       0.047867
    143 H78        177.9350   194.9060   120.8240 hc         1 U42       0.047867
    144 H79        178.8410   194.5970   119.3270 hc         1 U42       0.047867
    145 H80        178.4490   198.0030   121.0410 hc         1 U42       0.047867
    146 H81        177.0410   198.4900   120.0730 hc         1 U42       0.047867
    147 H82        176.8910   197.1820   121.2520 hc         1 U42       0.047867
    148 H83        171.0830   193.2190   119.8660 ha         1 U42       0.173000
    149 H85        169.6380   195.7840   119.0120 ha         1 U42       0.168000
    150 H87        161.4430   195.5400   122.9380 ha         1 U42       0.171000
    151 H88        163.2870   197.3690   121.2040 ha         1 U42       0.169000
    152 H89        167.6310   196.2130   120.1010 ha         1 U42       0.168000
    153 H90        167.4480   192.3920   120.2810 hc         1 U42       0.042700
    154 H91        169.1140   192.2100   119.8160 hc         1 U42       0.042700
    155 H92        168.7200   192.6110   121.4960 hc         1 U42       0.042700
    156 H93        166.1650   193.8070   121.3560 ha         1 U42       0.174000
    157 H94        165.5290   196.7770   120.8890 ha         1 U42       0.169000
    158 H95        163.2490   194.4500   123.6300 hc         1 U42       0.042700
    159 H96        163.4900   193.4580   122.1820 hc         1 U42       0.042700
    160 H97        164.8620   193.9570   123.1860 hc         1 U42       0.042700
    161 H98        180.3590   196.8140   117.2800 ho         1 U42       0.525000
    162 H99        180.6440   198.9900   114.3710 ho         1 U42       0.452000
    163 H100       179.9330   201.9860   115.2370 ho         1 U42       0.508000
    164 CAF        151.8140   199.0650   128.6950 c3         1 U42      -0.081600
@<TRIPOS>BOND
     1     1    21 1   
     2     1    66 1   
     3     1    68 1   
     4     1    69 1   
     5     2     3 1   
     6     2    66 1   
     7     2    67 2   
     8     3     4 1   
     9     3    70 1   
    10     3    71 1   
    11     4     5 1   
    12     4    72 1   
    13     4    73 1   
    14     5     6 1   
    15     5    74 1   
    16     5    75 1   
    17     6     7 1   
    18     6    76 1   
    19     6    77 1   
    20     7     8 1   
    21     7    78 1   
    22     7    79 1   
    23     8     9 1   
    24     8    80 1   
    25     8    81 1   
    26     9    10 1   
    27     9    82 1   
    28     9    83 1   
    29    10    11 1   
    30    10    84 1   
    31    10    85 1   
    32    11    12 1   
    33    11    86 1   
    34    11    87 1   
    35    12    13 1   
    36    12    88 1   
    37    12    89 1   
    38    13    14 1   
    39    13    90 1   
    40    13    91 1   
    41    14    15 1   
    42    14    92 1   
    43    14    93 1   
    44    15    16 1   
    45    15    94 1   
    46    15    95 1   
    47    16    96 1   
    48    16    97 1   
    49    16    98 1   
    50    17    18 1   
    51    17    61 1   
    52    17    64 1   
    53    17    99 1   
    54    18    19 1   
    55    18    62 1   
    56    18   100 1   
    57    19    20 1   
    58    19    63 1   
    59    19   101 1   
    60    20    21 1   
    61    20    65 1   
    62    20   102 1   
    63    21    64 1   
    64    21   103 1   
    65    22    23 1   
    66    22    24 1   
    67    22    26 1   
    68    22   164 1   
    69    23    25 1   
    70    23   104 1   
    71    23   105 1   
    72    24    27 2   
    73    24    29 1   
    74    25    28 1   
    75    25   106 1   
    76    25   107 1   
    77    26   111 1   
    78    26   112 1   
    79    26   113 1   
    80    27    28 1   
    81    27    30 1   
    82    28   114 1   
    83    28   115 1   
    84    29    31 2   
    85    29   116 1   
    86    30   117 1   
    87    30   118 1   
    88    30   119 1   
    89    31    32 1   
    90    31   120 1   
    91    32    33 1   
    92    32    34 2   
    93    33   121 1   
    94    33   122 1   
    95    33   123 1   
    96    34    35 1   
    97    34   124 1   
    98    35    36 2   
    99    35   125 1   
   100    36    37 1   
   101    36   126 1   
   102    37    40 1   
   103    37    41 2   
   104    38    39 1   
   105    38    42 1   
   106    38   127 1   
   107    38   128 1   
   108    39    43 1   
   109    39   129 1   
   110    39   130 1   
   111    40   131 1   
   112    40   132 1   
   113    40   133 1   
   114    41    47 1   
   115    41   134 1   
   116    42    45 1   
   117    42    46 2   
   118    43    44 1   
   119    43   135 1   
   120    43   136 1   
   121    44    48 1   
   122    44    49 1   
   123    44    61 1   
   124    45   137 1   
   125    45   138 1   
   126    45   139 1   
   127    46    50 1   
   128    46   140 1   
   129    47    52 2   
   130    47   141 1   
   131    48   142 1   
   132    48   143 1   
   133    48   144 1   
   134    49   145 1   
   135    49   146 1   
   136    49   147 1   
   137    50    51 2   
   138    50   148 1   
   139    51    53 1   
   140    51   149 1   
   141    52    54 1   
   142    52   150 1   
   143    53    55 2   
   144    53    56 1   
   145    54    57 2   
   146    54   151 1   
   147    55    58 1   
   148    55   152 1   
   149    56   153 1   
   150    56   154 1   
   151    56   155 1   
   152    57    59 1   
   153    57    60 1   
   154    58    59 2   
   155    58   156 1   
   156    59   157 1   
   157    60   158 1   
   158    60   159 1   
   159    60   160 1   
   160    62   161 1   
   161    63   162 1   
   162    65   163 1   
   163   108   164 1   
   164   109   164 1   
   165   110   164 1   
@<TRIPOS>SUBSTRUCTURE
     1 U42         1 TEMP              0 ****  ****    0 ROOT
