@<TRIPOS>MOLECULE
U43
   22    22     1     0     0
SMALL
abcg2


@<TRIPOS>ATOM
      1 C2          55.3800   -18.1220    43.9190 ca         1 U43      -0.171000
      2 C4          56.9460   -19.3220    42.5480 ca         1 U43      -0.211300
      3 C5          55.8870   -20.0380    41.9770 ca         1 U43      -0.088000
      4 C6          54.5800   -19.8100    42.3680 ca         1 U43       0.198000
      5 C7          58.3320   -19.6080    42.0860 c3         1 U43       0.347300
      6 C           52.6760   -17.8050    44.8990 c3         1 U43       0.191100
      7 C1          54.3120   -18.8410    43.3760 ca         1 U43       0.300000
      8 C3          56.6900   -18.3560    43.5090 ca         1 U43      -0.044000
      9 F           58.6630   -20.9240    42.2110 f          1 U43      -0.118000
     10 F1          58.5190   -19.3200    40.7660 f          1 U43      -0.118000
     11 F2          59.2710   -18.9130    42.7600 f          1 U43      -0.118000
     12 N1          53.5130   -20.5500    41.8460 nv         1 U43      -1.062000
     13 H1          55.1920   -17.3810    44.6810 ha         1 U43       0.121000
     14 H2          56.0830   -20.7780    41.2100 ha         1 U43       0.124000
     15 H3          52.4110   -19.4450    43.6470 hn         1 U43       0.476000
     16 H4          51.5990   -17.8430    45.0540 h1         1 U43       0.038700
     17 H5          53.1760   -18.1370    45.8170 h1         1 U43       0.038700
     18 H6          52.9590   -16.7680    44.7140 h1         1 U43       0.038700
     19 H7          57.4970   -17.7900    43.9510 ha         1 U43       0.129000
     20 H8          52.6960   -19.9950    41.6180 hn         1 U43       0.437500
     21 H9          53.7720   -21.1210    41.0530 hn         1 U43       0.437500
     22 N           53.0020   -18.6340    43.7520 nu         1 U43      -0.947200
@<TRIPOS>BOND
     1     1     7 ar  
     2     1     8 ar  
     3     1    13 1   
     4     2     3 ar  
     5     2     5 1   
     6     2     8 ar  
     7     3     4 ar  
     8     3    14 1   
     9     4     7 ar  
    10     4    12 1   
    11     5     9 1   
    12     5    10 1   
    13     5    11 1   
    14     6    16 1   
    15     6    17 1   
    16     6    18 1   
    17     6    22 1   
    18     7    22 1   
    19     8    19 1   
    20    12    20 1   
    21    12    21 1   
    22    15    22 1   
@<TRIPOS>SUBSTRUCTURE
     1 U43         1 TEMP              0 ****  ****    0 ROOT
