@<TRIPOS>MOLECULE
U43
   22    22     1     0     0
SMALL
No Charge or Current Charge


@<TRIPOS>ATOM
      1 C2          55.4120   -18.1930    43.9820 ca         1 U43      -0.171000
      2 C4          56.9840   -19.3570    42.5190 ca         1 U43      -0.211300
      3 C5          55.9050   -20.0810    41.9650 ca         1 U43      -0.088000
      4 C6          54.5840   -19.8770    42.4070 ca         1 U43       0.198000
      5 C7          58.4140   -19.5840    42.0130 c3         1 U43       0.347300
      6 C           52.5740   -17.6650    44.8830 c3         1 U43       0.191100
      7 C1          54.3320   -18.9200    43.4460 ca         1 U43       0.300000
      8 C3          56.7220   -18.4040    43.5240 ca         1 U43      -0.044000
      9 F           58.6220   -20.8620    41.6200 f          1 U43      -0.118000
     10 F1          58.6890   -18.7950    40.9510 f          1 U43      -0.118000
     11 F2          59.3450   -19.3160    42.9570 f          1 U43      -0.118000
     12 N1          53.5700   -20.6130    41.7950 nv         1 U43      -1.062000
     13 H1          55.2460   -17.4600    44.7650 ha         1 U43       0.121000
     14 H2          56.0920   -20.8040    41.1750 ha         1 U43       0.124000
     15 H3          52.3320   -19.3970    43.6460 hn         1 U43       0.476000
     16 H4          51.4940   -17.7500    45.0600 h1         1 U43       0.038700
     17 H5          53.0900   -17.7620    45.8480 h1         1 U43       0.038700
     18 H6          52.7800   -16.6660    44.4750 h1         1 U43       0.038700
     19 H7          57.5340   -17.8210    43.9570 ha         1 U43       0.129000
     20 H8          52.6130   -20.2700    41.8400 hn         1 U43       0.437500
     21 H9          53.7960   -21.1930    40.9880 hn         1 U43       0.437500
     22 N           53.0260   -18.7100    43.9450 nu         1 U43      -0.947200
@<TRIPOS>BOND
     1     1     7 ar  
     2     1     8 ar  
     3     1    13 1   
     4     2     3 ar  
     5     2     5 1   
     6     2     8 ar  
     7     3     4 ar  
     8     3    14 1   
     9     4     7 ar  
    10     4    12 1   
    11     5     9 1   
    12     5    10 1   
    13     5    11 1   
    14     6    16 1   
    15     6    17 1   
    16     6    18 1   
    17     6    22 1   
    18     7    22 1   
    19     8    19 1   
    20    12    20 1   
    21    12    21 1   
    22    15    22 1   
@<TRIPOS>SUBSTRUCTURE
     1 U43         1 TEMP              0 ****  ****    0 ROOT
