@<TRIPOS>MOLECULE
U44
   39    38     1     0     0
SMALL
abcg2


@<TRIPOS>ATOM
      1 C21          4.6700     1.7880    -0.1400 c3         1 U44       0.056600
      2 C22          5.1340     3.1990     0.1900 c3         1 U44       0.101000
      3 C24          5.3390     5.5040    -2.8110 c3         1 U44      -0.187400
      4 C26          4.2300     4.0640    -5.4760 c          1 U44       0.607100
      5 C28          3.8770     1.5370    -5.3130 c3         1 U44      -0.072000
      6 S2           5.9870     0.7170    -0.7950 sh         1 U44      -0.461800
      7 N5           5.5350     3.9570    -0.9710 ns         1 U44      -0.517900
      8 C23          4.6930     4.7340    -1.6770 c          1 U44       0.599100
      9 O6           3.5030     4.8350    -1.4130 o          1 U44      -0.608100
     10 C25          4.3410     5.9180    -3.8810 c3         1 U44       0.120000
     11 N6           3.6760     4.7960    -4.5020 ns         1 U44      -0.487900
     12 O7           5.3280     4.3130    -5.9570 o          1 U44      -0.621100
     13 C27          3.4130     2.8710    -5.9600 c3         1 U44       0.095300
     14 O8           2.0560     3.1540    -5.7070 oh         1 U44      -0.669000
     15 C29          3.7390     1.5800    -3.7920 c3         1 U44      -0.090767
     16 C30          5.3300     1.2390    -5.6880 c3         1 U44      -0.090767
     17 C31          3.0040     0.4050    -5.8670 c3         1 U44      -0.090767
     18 H1           4.3320     1.2950     0.7720 h1         1 U44       0.081200
     19 H2           3.8290     1.8030    -0.8330 h1         1 U44       0.081200
     20 H3           5.9760     3.1590     0.8800 h1         1 U44       0.066200
     21 H4           4.3240     3.7250     0.6970 h1         1 U44       0.066200
     22 H5           6.1560     4.9290    -3.2520 hc         1 U44       0.070700
     23 H6           5.7950     6.4060    -2.3890 hc         1 U44       0.070700
     24 H7           6.1600     1.3310    -1.9710 hs         1 U44       0.213800
     25 H8           6.5050     3.9320    -1.2390 hn         1 U44       0.318500
     26 H9           4.8560     6.5020    -4.6420 h1         1 U44       0.064200
     27 H10          3.5740     6.5590    -3.4510 h1         1 U44       0.064200
     28 H11          2.7750     4.5240    -4.1460 hn         1 U44       0.345500
     29 H12          3.5980     2.7900    -7.0410 h1         1 U44       0.061700
     30 H13          1.5140     2.4460    -6.0670 ho         1 U44       0.457000
     31 H14          2.7230     1.8290    -3.4790 hc         1 U44       0.039700
     32 H15          3.9870     0.6070    -3.3640 hc         1 U44       0.039700
     33 H16          4.4130     2.3120    -3.3420 hc         1 U44       0.039700
     34 H17          5.6070     0.2510    -5.3170 hc         1 U44       0.039700
     35 H18          5.4710     1.2360    -6.7710 hc         1 U44       0.039700
     36 H19          6.0270     1.9580    -5.2610 hc         1 U44       0.039700
     37 H20          1.9580     0.4860    -5.5630 hc         1 U44       0.039700
     38 H21          3.0420     0.3690    -6.9590 hc         1 U44       0.039700
     39 H22          3.3590    -0.5570    -5.4950 hc         1 U44       0.039700
@<TRIPOS>BOND
     1     1     2 1   
     2     1     6 1   
     3     1    18 1   
     4     1    19 1   
     5     2     7 1   
     6     2    20 1   
     7     2    21 1   
     8     3     8 1   
     9     3    10 1   
    10     3    22 1   
    11     3    23 1   
    12     4    11 1   
    13     4    12 2   
    14     4    13 1   
    15     5    13 1   
    16     5    15 1   
    17     5    16 1   
    18     5    17 1   
    19     6    24 1   
    20     7     8 1   
    21     7    25 1   
    22     8     9 2   
    23    10    11 1   
    24    10    26 1   
    25    10    27 1   
    26    11    28 1   
    27    13    14 1   
    28    13    29 1   
    29    14    30 1   
    30    15    31 1   
    31    15    32 1   
    32    15    33 1   
    33    16    34 1   
    34    16    35 1   
    35    16    36 1   
    36    17    37 1   
    37    17    38 1   
    38    17    39 1   
@<TRIPOS>SUBSTRUCTURE
     1 U44         1 TEMP              0 ****  ****    0 ROOT
