@<TRIPOS>MOLECULE
U44
   39    38     1     0     0
SMALL
No Charge or Current Charge


@<TRIPOS>ATOM
      1 C21          4.8710     1.6800    -0.3230 c3         1 U44       0.056600
      2 C22          5.4200     3.0900    -0.0270 c3         1 U44       0.101000
      3 C24          5.2720     5.8400    -2.7340 c3         1 U44      -0.187400
      4 C26          4.4070     4.0210    -5.3200 c          1 U44       0.607100
      5 C28          3.7960     1.4600    -5.1930 c3         1 U44      -0.072000
      6 S2           5.9510     0.6640    -1.4430 sh         1 U44      -0.461800
      7 N5           5.5790     3.9200    -1.2320 ns         1 U44      -0.517900
      8 C23          4.7990     5.0140    -1.5390 c          1 U44       0.599100
      9 O6           3.8360     5.3390    -0.8610 o          1 U44      -0.608100
     10 C25          4.1890     6.0380    -3.8140 c3         1 U44       0.120000
     11 N6           3.7100     4.7930    -4.4160 ns         1 U44      -0.487900
     12 O7           5.5490     4.3040    -5.6650 o          1 U44      -0.621100
     13 C27          3.5900     2.8320    -5.9360 c3         1 U44       0.095300
     14 O8           2.1740     3.1460    -6.0310 oh         1 U44      -0.669000
     15 C29          3.2250     1.5110    -3.7480 c3         1 U44      -0.090767
     16 C30          5.3090     1.1110    -5.1210 c3         1 U44      -0.090767
     17 C31          3.0840     0.3180    -5.9740 c3         1 U44      -0.090767
     18 H1           4.7610     1.1390     0.6270 h1         1 U44       0.081200
     19 H2           3.8740     1.7660    -0.7730 h1         1 U44       0.081200
     20 H3           6.4000     2.9940     0.4570 h1         1 U44       0.066200
     21 H4           4.7520     3.5900     0.6860 h1         1 U44       0.066200
     22 H5           6.1650     5.3870    -3.1800 hc         1 U44       0.070700
     23 H6           5.5540     6.8300    -2.3590 hc         1 U44       0.070700
     24 H7           5.7490     1.4080    -2.5570 hs         1 U44       0.213800
     25 H8           6.3780     3.7500    -1.8320 hn         1 U44       0.318500
     26 H9           4.5870     6.6800    -4.6110 h1         1 U44       0.064200
     27 H10          3.3300     6.5600    -3.3720 h1         1 U44       0.064200
     28 H11          2.7450     4.5140    -4.2710 hn         1 U44       0.345500
     29 H12          3.9930     2.7150    -6.9520 h1         1 U44       0.061700
     30 H13          1.7440     2.4080    -6.5170 ho         1 U44       0.457000
     31 H14          2.1500     1.7250    -3.7490 hc         1 U44       0.039700
     32 H15          3.3690     0.5500    -3.2390 hc         1 U44       0.039700
     33 H16          3.7240     2.2830    -3.1520 hc         1 U44       0.039700
     34 H17          5.4630     0.1190    -4.6770 hc         1 U44       0.039700
     35 H18          5.7580     1.1020    -6.1230 hc         1 U44       0.039700
     36 H19          5.8620     1.8330    -4.5090 hc         1 U44       0.039700
     37 H20          1.9960     0.4530    -5.9880 hc         1 U44       0.039700
     38 H21          3.4360     0.2730    -7.0120 hc         1 U44       0.039700
     39 H22          3.2840    -0.6560    -5.5110 hc         1 U44       0.039700
@<TRIPOS>BOND
     1     1     2 1   
     2     1     6 1   
     3     1    18 1   
     4     1    19 1   
     5     2     7 1   
     6     2    20 1   
     7     2    21 1   
     8     3     8 1   
     9     3    10 1   
    10     3    22 1   
    11     3    23 1   
    12     4    11 1   
    13     4    12 2   
    14     4    13 1   
    15     5    13 1   
    16     5    15 1   
    17     5    16 1   
    18     5    17 1   
    19     6    24 1   
    20     7     8 1   
    21     7    25 1   
    22     8     9 2   
    23    10    11 1   
    24    10    26 1   
    25    10    27 1   
    26    11    28 1   
    27    13    14 1   
    28    13    29 1   
    29    14    30 1   
    30    15    31 1   
    31    15    32 1   
    32    15    33 1   
    33    16    34 1   
    34    16    35 1   
    35    16    36 1   
    36    17    37 1   
    37    17    38 1   
    38    17    39 1   
@<TRIPOS>SUBSTRUCTURE
     1 U44         1 TEMP              0 ****  ****    0 ROOT
