@<TRIPOS>MOLECULE
U45
   51    55     1     0     0
SMALL
No Charge or Current Charge


@<TRIPOS>ATOM
      1 CAM         68.0130     3.8750    63.3960 ca         1 U45      -0.054000
      2 CAL         69.2820     3.7820    64.0100 ca         1 U45      -0.148500
      3 CAT         69.4050     3.4230    65.3760 ca         1 U45      -0.083000
      4 CAJ         68.2580     3.1500    66.1530 ca         1 U45      -0.139000
      5 CAS         67.0140     3.2500    65.5170 ca         1 U45       0.009300
      6 CAN         66.8730     3.6010    64.1760 cp         1 U45      -0.085000
      7 CAO         65.4490     3.6110    63.8490 cp         1 U45      -0.085000
      8 CAP         64.7680     3.8970    62.6510 ca         1 U45      -0.054000
      9 CAQ         63.3570     3.8240    62.6470 ca         1 U45      -0.148500
     10 CAU         62.6450     3.4740    63.8230 ca         1 U45      -0.083000
     11 CAV         63.3330     3.1890    65.0220 ca         1 U45      -0.139000
     12 CBC         64.7320     3.2650    64.9940 ca         1 U45       0.009300
     13 NAR         65.7050     3.0500    65.9850 na         1 U45      -0.101600
     14 CAK         65.4010     2.5030    67.3220 c3         1 U45       0.094600
     15 CAH         65.3800     3.5720    68.4460 c3         1 U45       0.129300
     16 OAI         64.3060     4.5040    68.2330 oh         1 U45      -0.643000
     17 CAD         65.2400     2.9440    69.8570 c3         1 U45       0.080000
     18 NAG         63.9450     2.2490    70.0860 n          1 U45      -0.139800
     19 NAF         62.9000     3.0880    70.4390 nc         1 U45      -0.436300
     20 CBD         63.8720     0.8440    69.9550 c          1 U45       0.556600
     21 OBE         64.8360     0.1540    69.6420 o          1 U45      -0.544000
     22 CAW         62.5130     0.2620    70.2090 ca         1 U45      -0.151600
     23 CAX         62.3200    -1.1320    70.0820 ca         1 U45      -0.057000
     24 CAY         61.0580    -1.6980    70.3000 ca         1 U45      -0.108000
     25 CAZ         59.9810    -0.8730    70.6430 ca         1 U45      -0.084000
     26 CBA         60.1630     0.5130    70.7730 ca         1 U45      -0.081000
     27 CBB         61.4330     1.1170    70.5670 ca         1 U45      -0.099900
     28 CAE         61.6710     2.6000    70.7000 cd         1 U45       0.339900
     29 CAB         60.6080     3.6120    71.1310 c          1 U45       0.540800
     30 OAC         59.4410     3.3800    71.4110 o          1 U45      -0.601100
     31 NAA         61.0180     4.9080    71.2130 nt         1 U45      -0.585000
     32 H1          67.9170     4.1510    62.3490 ha         1 U45       0.114000
     33 H2          70.1760     3.9890    63.4260 ha         1 U45       0.111500
     34 H3          70.3910     3.3570    65.8300 ha         1 U45       0.110000
     35 H4          68.3430     2.8750    67.2010 ha         1 U45       0.117000
     36 H5          65.3150     4.1670    61.7510 ha         1 U45       0.114000
     37 H6          62.8110     4.0420    61.7320 ha         1 U45       0.111500
     38 H7          61.5590     3.4270    63.8010 ha         1 U45       0.110000
     39 H8          62.7940     2.9260    65.9280 ha         1 U45       0.117000
     40 H9          64.4360     1.9840    67.2870 h1         1 U45       0.074700
     41 H10         66.1610     1.7480    67.5610 h1         1 U45       0.074700
     42 H11         66.3400     4.1050    68.4150 h1         1 U45       0.048700
     43 H12         63.5740     4.2090    68.8240 ho         1 U45       0.444000
     44 H13         66.0730     2.2510    70.0270 h1         1 U45       0.075700
     45 H14         65.3450     3.7390    70.6060 h1         1 U45       0.075700
     46 H15         63.1500    -1.7820    69.8090 ha         1 U45       0.140000
     47 H16         60.9160    -2.7710    70.1990 ha         1 U45       0.123000
     48 H17         58.9980    -1.3090    70.8080 ha         1 U45       0.123000
     49 H18         59.2860     1.0910    71.0350 ha         1 U45       0.154000
     50 H19         60.3630     5.6210    71.4970 hn         1 U45       0.326000
     51 H20         61.9800     5.1410    71.0080 hn         1 U45       0.326000
@<TRIPOS>BOND
     1     1     2 ar  
     2     1     6 ar  
     3     1    32 1   
     4     2     3 ar  
     5     2    33 1   
     6     3     4 ar  
     7     3    34 1   
     8     4     5 ar  
     9     4    35 1   
    10     5     6 ar  
    11     5    13 1   
    12     6     7 1   
    13     7     8 ar  
    14     7    12 ar  
    15     8     9 ar  
    16     8    36 1   
    17     9    10 ar  
    18     9    37 1   
    19    10    11 ar  
    20    10    38 1   
    21    11    12 ar  
    22    11    39 1   
    23    12    13 1   
    24    13    14 1   
    25    14    15 1   
    26    14    40 1   
    27    14    41 1   
    28    15    16 1   
    29    15    17 1   
    30    15    42 1   
    31    16    43 1   
    32    17    18 1   
    33    17    44 1   
    34    17    45 1   
    35    18    19 1   
    36    18    20 1   
    37    19    28 2   
    38    20    21 2   
    39    20    22 1   
    40    22    23 ar  
    41    22    27 ar  
    42    23    24 ar  
    43    23    46 1   
    44    24    25 ar  
    45    24    47 1   
    46    25    26 ar  
    47    25    48 1   
    48    26    27 ar  
    49    26    49 1   
    50    27    28 1   
    51    28    29 1   
    52    29    30 2   
    53    29    31 1   
    54    31    50 1   
    55    31    51 1   
@<TRIPOS>SUBSTRUCTURE
     1 U45         1 TEMP              0 ****  ****    0 ROOT
