@<TRIPOS>MOLECULE
U45
   51    55     1     0     0
SMALL
abcg2


@<TRIPOS>ATOM
      1 CAM         67.9630     4.0060    63.5050 ca         1 U45      -0.054000
      2 CAL         69.1950     3.9140    64.1390 ca         1 U45      -0.148500
      3 CAT         69.2870     3.4550    65.4610 ca         1 U45      -0.083000
      4 CAJ         68.1570     3.0830    66.1800 ca         1 U45      -0.139000
      5 CAS         66.9220     3.1780    65.5410 ca         1 U45       0.009300
      6 CAN         66.8140     3.6380    64.2030 cp         1 U45      -0.085000
      7 CAO         65.4080     3.5990    63.8680 cp         1 U45      -0.085000
      8 CAP         64.6820     3.9170    62.7200 ca         1 U45      -0.054000
      9 CAQ         63.3030     3.7560    62.7290 ca         1 U45      -0.148500
     10 CAU         62.6470     3.2830    63.8750 ca         1 U45      -0.083000
     11 CAV         63.3460     2.9620    65.0320 ca         1 U45      -0.139000
     12 CBC         64.7310     3.1210    65.0190 ca         1 U45       0.009300
     13 NAR         65.6590     2.8670    66.0160 na         1 U45      -0.101600
     14 CAK         65.3730     2.3770    67.3480 c3         1 U45       0.094600
     15 CAH         65.3600     3.4860    68.3960 c3         1 U45       0.129300
     16 OAI         64.3240     4.3920    68.0360 oh         1 U45      -0.643000
     17 CAD         65.1960     2.9530    69.8230 c3         1 U45       0.080000
     18 NAG         63.9270     2.2610    70.0540 n          1 U45      -0.139800
     19 NAF         62.9080     3.0590    70.3970 nc         1 U45      -0.436300
     20 CBD         63.8430     0.8840    69.9040 c          1 U45       0.556600
     21 OBE         64.8340     0.2240    69.6020 o          1 U45      -0.544000
     22 CAW         62.5130     0.3230    70.1350 ca         1 U45      -0.151600
     23 CAX         62.3310    -1.0600    70.0240 ca         1 U45      -0.057000
     24 CAY         61.0870    -1.6110    70.2510 ca         1 U45      -0.108000
     25 CAZ         60.0110    -0.7850    70.6000 ca         1 U45      -0.084000
     26 CBA         60.1740     0.5810    70.7100 ca         1 U45      -0.081000
     27 CBB         61.4320     1.1640    70.4710 ca         1 U45      -0.099900
     28 CAE         61.7210     2.5750    70.5860 cd         1 U45       0.339900
     29 CAB         60.6750     3.6150    70.9140 c          1 U45       0.540800
     30 OAC         59.4790     3.4220    70.7000 o          1 U45      -0.601100
     31 NAA         61.1500     4.7530    71.4460 nt         1 U45      -0.585000
     32 H1          67.8950     4.3570    62.4820 ha         1 U45       0.114000
     33 H2          70.0960     4.1990    63.6100 ha         1 U45       0.111500
     34 H3          70.2580     3.3910    65.9350 ha         1 U45       0.110000
     35 H4          68.2420     2.7330    67.2000 ha         1 U45       0.117000
     36 H5          65.1890     4.2830    61.8350 ha         1 U45       0.114000
     37 H6          62.7260     3.9980    61.8450 ha         1 U45       0.111500
     38 H7          61.5700     3.1680    63.8610 ha         1 U45       0.110000
     39 H8          62.8250     2.6110    65.9120 ha         1 U45       0.117000
     40 H9          64.4070     1.8760    67.3250 h1         1 U45       0.074700
     41 H10         66.1210     1.6350    67.6230 h1         1 U45       0.074700
     42 H11         66.3290     3.9980    68.3750 h1         1 U45       0.048700
     43 H12         64.3440     5.1460    68.6390 ho         1 U45       0.444000
     44 H13         66.0040     2.2620    70.0510 h1         1 U45       0.075700
     45 H14         65.2290     3.7860    70.5220 h1         1 U45       0.075700
     46 H15         63.1770    -1.6780    69.7610 ha         1 U45       0.140000
     47 H16         60.9430    -2.6800    70.1650 ha         1 U45       0.123000
     48 H17         59.0380    -1.2220    70.7860 ha         1 U45       0.123000
     49 H18         59.3420     1.2120    70.9750 ha         1 U45       0.154000
     50 H19         60.5180     5.5240    71.5930 hn         1 U45       0.326000
     51 H20         62.1420     4.9080    71.5220 hn         1 U45       0.326000
@<TRIPOS>BOND
     1     1     2 ar  
     2     1     6 ar  
     3     1    32 1   
     4     2     3 ar  
     5     2    33 1   
     6     3     4 ar  
     7     3    34 1   
     8     4     5 ar  
     9     4    35 1   
    10     5     6 ar  
    11     5    13 1   
    12     6     7 1   
    13     7     8 ar  
    14     7    12 ar  
    15     8     9 ar  
    16     8    36 1   
    17     9    10 ar  
    18     9    37 1   
    19    10    11 ar  
    20    10    38 1   
    21    11    12 ar  
    22    11    39 1   
    23    12    13 1   
    24    13    14 1   
    25    14    15 1   
    26    14    40 1   
    27    14    41 1   
    28    15    16 1   
    29    15    17 1   
    30    15    42 1   
    31    16    43 1   
    32    17    18 1   
    33    17    44 1   
    34    17    45 1   
    35    18    19 1   
    36    18    20 1   
    37    19    28 2   
    38    20    21 2   
    39    20    22 1   
    40    22    23 ar  
    41    22    27 ar  
    42    23    24 ar  
    43    23    46 1   
    44    24    25 ar  
    45    24    47 1   
    46    25    26 ar  
    47    25    48 1   
    48    26    27 ar  
    49    26    49 1   
    50    27    28 1   
    51    28    29 1   
    52    29    30 2   
    53    29    31 1   
    54    31    50 1   
    55    31    51 1   
@<TRIPOS>SUBSTRUCTURE
     1 U45         1 TEMP              0 ****  ****    0 ROOT
