@<TRIPOS>MOLECULE
U49
   54    59     1     0     0
SMALL
No Charge or Current Charge


@<TRIPOS>ATOM
      1 C1          -0.4680     0.3050    -3.0920 ca         1 U49      -0.005000
      2 C2           0.9090     0.0260    -3.3220 ca         1 U49      -0.024000
      3 C3          -1.4070     0.1480    -4.1410 ca         1 U49      -0.043000
      4 C4          -0.9200     0.8030    -1.8500 ca         1 U49      -0.138000
      5 N5           1.8750    -0.0370    -2.2530 n          1 U49      -0.244400
      6 C6           1.2920    -0.4910    -4.5780 ca         1 U49      -0.123000
      7 C7          -2.7660     0.4560    -3.9330 ca         1 U49      -0.082000
      8 C8          -0.9880    -0.3150    -5.4000 ca         1 U49      -0.092000
      9 C9          -2.2800     1.0910    -1.6400 ca         1 U49       0.118100
     10 C10          3.2480     0.4680    -2.4270 c5         1 U49       0.106000
     11 C11          1.7210    -0.7870    -1.0740 c          1 U49       0.568000
     12 C12          0.3590    -0.6390    -5.6150 ca         1 U49      -0.103000
     13 C13         -3.2010     0.9240    -2.6820 ca         1 U49      -0.102000
     14 O14         -2.7260     1.5430    -0.4180 os         1 U49      -0.259200
     15 C15          3.6770     0.6970    -0.9520 c5         1 U49      -0.100400
     16 C17          3.0150    -0.5120    -0.2330 c5         1 U49       0.090500
     17 C18         -2.2740     0.9810     0.7550 ca         1 U49       0.143100
     18 C20         -2.9260    -0.1380     1.3130 ca         1 U49      -0.018000
     19 C21         -1.1410     1.5250     1.3860 ca         1 U49      -0.118000
     20 C22          2.1480    -1.0590     2.0810 c3         1 U49       0.233100
     21 C23         -2.4300    -0.7050     2.5030 ca         1 U49      -0.057000
     22 C24         -4.0860    -0.7060     0.6830 cg         1 U49       0.332000
     23 C25         -0.6220     0.9410     2.5570 ca         1 U49      -0.070300
     24 C26          2.1400    -0.5460     3.4950 cc         1 U49      -0.211300
     25 C27         -1.2850    -0.1710     3.1200 ca         1 U49      -0.102000
     26 N28         -5.0290    -1.1770     0.1800 n1         1 U49      -0.444000
     27 C29          0.6560     1.5170     3.1680 c3         1 U49       0.118900
     28 N30          1.4580     0.5660     3.9610 na         1 U49      -0.160500
     29 C31          2.7370    -1.0940     4.6020 cd         1 U49       0.234900
     30 C32          1.6750     0.6390     5.3210 cc         1 U49       0.391400
     31 N33          2.4500    -0.3560     5.7320 nd         1 U49      -0.667000
     32 O39          0.7610    -1.5000    -0.7990 o          1 U49      -0.521000
     33 N54          2.8390    -0.0980     1.2040 n7         1 U49      -0.861400
     34 H41         -0.2150     0.9880    -1.0490 ha         1 U49       0.133000
     35 H61          2.3230    -0.7900    -4.7540 ha         1 U49       0.115000
     36 H71         -3.4860     0.3310    -4.7380 ha         1 U49       0.120000
     37 H81         -1.7050    -0.4380    -6.2090 ha         1 U49       0.117000
     38 H101         3.2780     1.3940    -3.0170 h1         1 U49       0.052700
     39 H102         3.8790    -0.2840    -2.9190 h1         1 U49       0.052700
     40 H121         0.6770    -1.0220    -6.5820 ha         1 U49       0.117000
     41 H131        -4.2520     1.1540    -2.5200 ha         1 U49       0.135000
     42 H151         3.2750     1.6510    -0.5900 hc         1 U49       0.065200
     43 H152         4.7650     0.7280    -0.8270 hc         1 U49       0.065200
     44 H171         3.6490    -1.4060    -0.3170 h1         1 U49       0.054700
     45 H211        -0.6490     2.3870     0.9430 ha         1 U49       0.131000
     46 H221         2.6530    -2.0360     2.0610 h1         1 U49       0.063200
     47 H222         1.1110    -1.2180     1.7570 h1         1 U49       0.063200
     48 H231        -2.9240    -1.5670     2.9470 ha         1 U49       0.132000
     49 H271        -0.9140    -0.6340     4.0310 ha         1 U49       0.133000
     50 H291         1.2940     1.9080     2.3650 h1         1 U49       0.075200
     51 H292         0.3870     2.3670     3.8070 h1         1 U49       0.075200
     52 H311         3.3510    -1.9850     4.6490 h4         1 U49       0.037100
     53 H321         1.2520     1.4240     5.9380 h5         1 U49       0.055100
     54 H541         3.7600     0.0850     1.6200 hn         1 U49       0.416000
@<TRIPOS>BOND
     1     1     2 ar  
     2     1     3 ar  
     3     1     4 ar  
     4     2     5 1   
     5     2     6 ar  
     6     3     7 ar  
     7     3     8 ar  
     8     4     9 ar  
     9     4    34 1   
    10     5    10 1   
    11     5    11 1   
    12     6    12 ar  
    13     6    35 1   
    14     7    13 ar  
    15     7    36 1   
    16     8    12 ar  
    17     8    37 1   
    18     9    13 ar  
    19     9    14 1   
    20    10    15 1   
    21    10    38 1   
    22    10    39 1   
    23    11    16 1   
    24    11    32 2   
    25    12    40 1   
    26    13    41 1   
    27    14    17 1   
    28    15    16 1   
    29    15    42 1   
    30    15    43 1   
    31    16    33 1   
    32    16    44 1   
    33    17    18 ar  
    34    17    19 ar  
    35    18    21 ar  
    36    18    22 1   
    37    19    23 ar  
    38    19    45 1   
    39    20    24 1   
    40    20    33 1   
    41    20    46 1   
    42    20    47 1   
    43    21    25 ar  
    44    21    48 1   
    45    22    26 3   
    46    23    25 ar  
    47    23    27 1   
    48    24    28 1   
    49    24    29 2   
    50    25    49 1   
    51    27    28 1   
    52    27    50 1   
    53    27    51 1   
    54    28    30 1   
    55    29    31 1   
    56    29    52 1   
    57    30    31 2   
    58    30    53 1   
    59    33    54 1   
@<TRIPOS>SUBSTRUCTURE
     1 U49         1 TEMP              0 ****  ****    0 ROOT
