@<TRIPOS>MOLECULE
U49
   54    59     1     0     0
SMALL
abcg2


@<TRIPOS>ATOM
      1 C1          -0.4620     0.2160    -3.0210 ca         1 U49      -0.005000
      2 C2           0.8810    -0.2000    -3.2420 ca         1 U49      -0.024000
      3 C3          -1.3890     0.1140    -4.0900 ca         1 U49      -0.043000
      4 C4          -0.8960     0.7360    -1.7820 ca         1 U49      -0.138000
      5 N5           1.8280    -0.0860    -2.2040 n          1 U49      -0.244400
      6 C6           1.2630    -0.6650    -4.4740 ca         1 U49      -0.123000
      7 C7          -2.7280     0.5190    -3.8700 ca         1 U49      -0.082000
      8 C8          -0.9610    -0.3730    -5.3450 ca         1 U49      -0.092000
      9 C9          -2.2030     1.0890    -1.6060 ca         1 U49       0.118100
     10 C10          3.1040     0.5900    -2.3950 c5         1 U49       0.106000
     11 C11          1.7560    -0.7690    -1.0320 c          1 U49       0.568000
     12 C12          0.3400    -0.7460    -5.5340 ca         1 U49      -0.103000
     13 C13         -3.1370     0.9880    -2.6550 ca         1 U49      -0.102000
     14 O14         -2.6820     1.5690    -0.4080 os         1 U49      -0.259200
     15 C15          3.6150     0.7460    -0.9680 c5         1 U49      -0.100400
     16 C17          2.9810    -0.4110    -0.1990 c5         1 U49       0.090500
     17 C18         -2.1850     1.0090     0.7320 ca         1 U49       0.143100
     18 C20         -2.8520    -0.0890     1.2780 ca         1 U49      -0.018000
     19 C21         -1.0520     1.5060     1.3440 ca         1 U49      -0.118000
     20 C22          2.1880    -1.0650     2.0390 c3         1 U49       0.233100
     21 C23         -2.3710    -0.6770     2.4470 ca         1 U49      -0.057000
     22 C24         -4.0150    -0.5940     0.6310 cg         1 U49       0.332000
     23 C25         -0.5550     0.9000     2.4940 ca         1 U49      -0.070300
     24 C26          2.1240    -0.5990     3.4520 cc         1 U49      -0.211300
     25 C27         -1.2250    -0.1860     3.0450 ca         1 U49      -0.102000
     26 N28         -4.9510    -1.0120     0.1050 n1         1 U49      -0.444000
     27 C29          0.6960     1.4650     3.1110 c3         1 U49       0.118900
     28 N30          1.4380     0.5080     3.8960 na         1 U49      -0.160500
     29 C31          2.6670    -1.1470     4.5810 cd         1 U49       0.234900
     30 C32          1.5960     0.5610     5.2390 cc         1 U49       0.391400
     31 N33          2.3290    -0.4210     5.6880 nd         1 U49      -0.667000
     32 O39          0.8720    -1.5470    -0.7300 o          1 U49      -0.521000
     33 N54          2.6460    -0.0050     1.1530 n7         1 U49      -0.861400
     34 H41         -0.1870     0.8570    -0.9780 ha         1 U49       0.133000
     35 H61          2.2870    -0.9760    -4.6390 ha         1 U49       0.115000
     36 H71         -3.4380     0.4420    -4.6830 ha         1 U49       0.120000
     37 H81         -1.6770    -0.4410    -6.1550 ha         1 U49       0.117000
     38 H101         2.9600     1.5440    -2.8990 h1         1 U49       0.052700
     39 H102         3.7800    -0.0170    -3.0030 h1         1 U49       0.052700
     40 H121         0.6710    -1.1160    -6.4950 ha         1 U49       0.117000
     41 H131        -4.1660     1.2790    -2.4880 ha         1 U49       0.135000
     42 H151         3.2500     1.6840    -0.5470 hc         1 U49       0.065200
     43 H152         4.7020     0.7460    -0.9140 hc         1 U49       0.065200
     44 H171         3.6430    -1.2950    -0.2230 h1         1 U49       0.054700
     45 H211        -0.5440     2.3620     0.9160 ha         1 U49       0.131000
     46 H221         2.8400    -1.9510     2.0240 h1         1 U49       0.063200
     47 H222         1.2040    -1.4000     1.7100 h1         1 U49       0.063200
     48 H231        -2.8940    -1.5200     2.8770 ha         1 U49       0.132000
     49 H271        -0.8570    -0.6640     3.9430 ha         1 U49       0.133000
     50 H291         1.3380     1.8640     2.3280 h1         1 U49       0.075200
     51 H292         0.4320     2.2950     3.7690 h1         1 U49       0.075200
     52 H311         3.2810    -2.0330     4.6410 h4         1 U49       0.037100
     53 H321         1.1560     1.3510     5.8300 h5         1 U49       0.055100
     54 H541         3.4820     0.4050     1.5540 hn         1 U49       0.416000
@<TRIPOS>BOND
     1     1     2 ar  
     2     1     3 ar  
     3     1     4 ar  
     4     2     5 1   
     5     2     6 ar  
     6     3     7 ar  
     7     3     8 ar  
     8     4     9 ar  
     9     4    34 1   
    10     5    10 1   
    11     5    11 1   
    12     6    12 ar  
    13     6    35 1   
    14     7    13 ar  
    15     7    36 1   
    16     8    12 ar  
    17     8    37 1   
    18     9    13 ar  
    19     9    14 1   
    20    10    15 1   
    21    10    38 1   
    22    10    39 1   
    23    11    16 1   
    24    11    32 2   
    25    12    40 1   
    26    13    41 1   
    27    14    17 1   
    28    15    16 1   
    29    15    42 1   
    30    15    43 1   
    31    16    33 1   
    32    16    44 1   
    33    17    18 ar  
    34    17    19 ar  
    35    18    21 ar  
    36    18    22 1   
    37    19    23 ar  
    38    19    45 1   
    39    20    24 1   
    40    20    33 1   
    41    20    46 1   
    42    20    47 1   
    43    21    25 ar  
    44    21    48 1   
    45    22    26 3   
    46    23    25 ar  
    47    23    27 1   
    48    24    28 1   
    49    24    29 2   
    50    25    49 1   
    51    27    28 1   
    52    27    50 1   
    53    27    51 1   
    54    28    30 1   
    55    29    31 1   
    56    29    52 1   
    57    30    31 2   
    58    30    53 1   
    59    33    54 1   
@<TRIPOS>SUBSTRUCTURE
     1 U49         1 TEMP              0 ****  ****    0 ROOT
