@<TRIPOS>MOLECULE
U4B
   15    15     1     0     0
SMALL
bcc


@<TRIPOS>ATOM
      1 C02         58.8720    17.3630    12.3590 c          1 U4B       0.939200
      2 C04         58.7470    17.2160    13.8780 ca         1 U4B      -0.170600
      3 C05         59.7930    16.6690    14.6190 ca         1 U4B      -0.236300
      4 C06         59.6750    16.5570    15.9920 ca         1 U4B       0.316200
      5 C08         57.5710    17.4490    15.9930 ca         1 U4B       0.302800
      6 C09         56.3550    17.8950    16.8050 c          1 U4B       0.843100
      7 C12         57.6410    17.6080    14.6120 ca         1 U4B       0.056600
      8 F13         56.5590    18.0900    13.9840 f          1 U4B      -0.131900
      9 N07         58.5890    16.9220    16.6650 nb         1 U4B      -0.670000
     10 O01         58.3610    18.3750    11.8550 o          1 U4B      -0.836300
     11 O03         59.5000    16.4530    11.7930 o          1 U4B      -0.836300
     12 O10         56.0170    19.0820    16.6530 o          1 U4B      -0.829800
     13 O11         55.8550    17.0350    17.5470 o          1 U4B      -0.829800
     14 H051        60.6910    16.3310    14.1210 ha         1 U4B       0.119000
     15 H061        60.4890    16.1410    16.5770 h4         1 U4B      -0.035900
@<TRIPOS>BOND
     1     1     2 1   
     2     1    10 1   
     3     1    11 1   
     4     2     3 ar  
     5     2     7 ar  
     6     3     4 ar  
     7     3    14 1   
     8     4     9 ar  
     9     4    15 1   
    10     5     6 1   
    11     5     7 ar  
    12     5     9 ar  
    13     6    12 1   
    14     6    13 1   
    15     7     8 1   
@<TRIPOS>SUBSTRUCTURE
     1 U4B         1 TEMP              0 ****  ****    0 ROOT
