@<TRIPOS>MOLECULE
U4B
   15    15     1     0     0
SMALL
No Charge or Current Charge


@<TRIPOS>ATOM
      1 C02         58.8610    17.3880    12.3860 c          1 U4B       0.728600
      2 C04         58.7710    17.2270    13.8790 ca         1 U4B      -0.170600
      3 C05         59.8340    16.6530    14.6090 ca         1 U4B      -0.153000
      4 C06         59.7210    16.5040    15.9990 ca         1 U4B       0.250900
      5 C08         57.5780    17.4580    16.0100 ca         1 U4B       0.237500
      6 C09         56.3170    17.8890    16.7990 c          1 U4B       0.632500
      7 C12         57.6230    17.6260    14.5960 ca         1 U4B       0.157000
      8 F13         56.5520    18.1100    13.9200 f          1 U4B      -0.167000
      9 N07         58.6310    16.8890    16.6940 nb         1 U4B      -0.670000
     10 O01         58.5860    18.4740    11.8960 o          1 U4B      -0.731000
     11 O03         59.2810    16.4430    11.7330 o          1 U4B      -0.731000
     12 O10         55.7040    18.8940    16.4580 o          1 U4B      -0.724500
     13 O11         55.9860    17.2430    17.7910 o          1 U4B      -0.724500
     14 H051        60.7400    16.3250    14.1050 ha         1 U4B       0.101000
     15 H061        60.5300    16.0620    16.5780 h4         1 U4B      -0.035900
@<TRIPOS>BOND
     1     1     2 1   
     2     1    10 1   
     3     1    11 1   
     4     2     3 ar  
     5     2     7 ar  
     6     3     4 ar  
     7     3    14 1   
     8     4     9 ar  
     9     4    15 1   
    10     5     6 1   
    11     5     7 ar  
    12     5     9 ar  
    13     6    12 1   
    14     6    13 1   
    15     7     8 1   
@<TRIPOS>SUBSTRUCTURE
     1 U4B         1 TEMP              0 ****  ****    0 ROOT
