@<TRIPOS>MOLECULE
U4C
   29    31     1     0     0
SMALL
No Charge or Current Charge


@<TRIPOS>ATOM
      1 N1           2.0130    -3.0060   -56.3400 n7         1 U4C      -0.869400
      2 C4           0.7940    -4.3880   -51.4290 ca         1 U4C      -0.139000
      3 C5           2.1500    -4.4760   -51.0680 ca         1 U4C      -0.075000
      4 C6           3.1150    -3.7520   -51.7900 ca         1 U4C      -0.156000
      5 C7           0.9700    -1.9200   -54.3670 c6         1 U4C      -0.043100
      6 C8           2.0850    -1.7850   -55.4520 c5         1 U4C       0.104200
      7 C10          2.1510    -1.1640   -57.8030 c5         1 U4C      -0.083400
      8 C            3.5490    -1.5870   -54.8350 c          1 U4C       0.589000
      9 C11          1.7790    -0.5810   -56.4190 c5         1 U4C      -0.071400
     10 C9           1.5160    -2.5610   -57.6600 c5         1 U4C       0.159800
     11 C2           1.3700    -2.8570   -53.2330 ca         1 U4C      -0.134300
     12 C3           0.4020    -3.5750   -52.5060 ca         1 U4C      -0.074000
     13 C1           2.7240    -2.9480   -52.8750 ca         1 U4C      -0.002000
     14 N            3.6840    -2.2240   -53.6100 ns         1 U4C      -0.145000
     15 H1           1.3880    -3.7170   -55.9370 hn         1 U4C       0.425000
     16 H3           0.0460    -4.9440   -50.8680 ha         1 U4C       0.117000
     17 H4           2.4510    -5.1020   -50.2310 ha         1 U4C       0.116000
     18 H5           4.1640    -3.8220   -51.5100 ha         1 U4C       0.119000
     19 H6           0.7700    -0.9300   -53.9340 hc         1 U4C       0.060700
     20 H7           0.0250    -2.2450   -54.8250 hc         1 U4C       0.060700
     21 H8           3.2350    -1.2220   -57.9530 hc         1 U4C       0.060200
     22 H9           1.7260    -0.5910   -58.6350 hc         1 U4C       0.060200
     23 H10          2.3370     0.3310   -56.1780 hc         1 U4C       0.057200
     24 H11          0.7170    -0.3060   -56.3970 hc         1 U4C       0.057200
     25 H12          0.4180    -2.4930   -57.6590 h1         1 U4C       0.038200
     26 H13          1.8160    -3.2480   -58.4640 h1         1 U4C       0.038200
     27 H14         -0.6510    -3.4980   -52.7700 ha         1 U4C       0.113000
     28 H15          4.6000    -2.1620   -53.1870 hn         1 U4C       0.158000
     29 O            4.4770    -0.9480   -55.3270 o          1 U4C      -0.540000
@<TRIPOS>BOND
     1     1     6 1   
     2     1    10 1   
     3     1    15 1   
     4     2     3 ar  
     5     2    12 ar  
     6     2    16 1   
     7     3     4 ar  
     8     3    17 1   
     9     4    13 ar  
    10     4    18 1   
    11     5     6 1   
    12     5    11 1   
    13     5    19 1   
    14     5    20 1   
    15     6     8 1   
    16     6     9 1   
    17     7     9 1   
    18     7    10 1   
    19     7    21 1   
    20     7    22 1   
    21     8    14 1   
    22     8    29 2   
    23     9    23 1   
    24     9    24 1   
    25    10    25 1   
    26    10    26 1   
    27    11    12 ar  
    28    11    13 ar  
    29    12    27 1   
    30    13    14 1   
    31    14    28 1   
@<TRIPOS>SUBSTRUCTURE
     1 U4C         1 TEMP              0 ****  ****    0 ROOT
