@<TRIPOS>MOLECULE
U4C
   29    31     1     0     0
SMALL
abcg2


@<TRIPOS>ATOM
      1 N1           2.1400    -2.9470   -56.1810 n7         1 U4C      -0.869400
      2 C4           0.7610    -4.4010   -51.5590 ca         1 U4C      -0.139000
      3 C5           2.1050    -4.5470   -51.2300 ca         1 U4C      -0.075000
      4 C6           3.0740    -3.8140   -51.9030 ca         1 U4C      -0.156000
      5 C7           1.0060    -1.7370   -54.2880 c6         1 U4C      -0.043100
      6 C8           2.0650    -1.6870   -55.3940 c5         1 U4C       0.104200
      7 C10          2.0290    -1.2470   -57.7890 c5         1 U4C      -0.083400
      8 C            3.4620    -1.5220   -54.7720 c          1 U4C       0.589000
      9 C11          1.7680    -0.5870   -56.4320 c5         1 U4C      -0.071400
     10 C9           1.6190    -2.6910   -57.5330 c5         1 U4C       0.159800
     11 C2           1.3440    -2.7510   -53.2340 ca         1 U4C      -0.134300
     12 C3           0.3910    -3.5060   -52.5600 ca         1 U4C      -0.074000
     13 C1           2.6920    -2.9240   -52.9040 ca         1 U4C      -0.002000
     14 N            3.6580    -2.1770   -53.5950 ns         1 U4C      -0.145000
     15 H1           1.6490    -3.7000   -55.7150 hn         1 U4C       0.425000
     16 H3           0.0060    -4.9790   -51.0430 ha         1 U4C       0.117000
     17 H4           2.4040    -5.2390   -50.4530 ha         1 U4C       0.116000
     18 H5           4.1240    -3.9310   -51.6610 ha         1 U4C       0.119000
     19 H6           0.9420    -0.7430   -53.8290 hc         1 U4C       0.060700
     20 H7           0.0330    -1.9480   -54.7330 hc         1 U4C       0.060700
     21 H8           3.0910    -1.1980   -58.0400 hc         1 U4C       0.060200
     22 H9           1.4630    -0.7870   -58.5980 hc         1 U4C       0.060200
     23 H10          2.3720     0.3020   -56.2620 hc         1 U4C       0.057200
     24 H11          0.7170    -0.3050   -56.3500 hc         1 U4C       0.057200
     25 H12          0.5260    -2.7850   -57.5810 h1         1 U4C       0.038200
     26 H13          2.0510    -3.3940   -58.2470 h1         1 U4C       0.038200
     27 H14         -0.6530    -3.3860   -52.8230 ha         1 U4C       0.113000
     28 H15          4.6070    -2.1900   -53.2460 hn         1 U4C       0.158000
     29 O            4.3730    -0.9010   -55.3080 o          1 U4C      -0.540000
@<TRIPOS>BOND
     1     1     6 1   
     2     1    10 1   
     3     1    15 1   
     4     2     3 ar  
     5     2    12 ar  
     6     2    16 1   
     7     3     4 ar  
     8     3    17 1   
     9     4    13 ar  
    10     4    18 1   
    11     5     6 1   
    12     5    11 1   
    13     5    19 1   
    14     5    20 1   
    15     6     8 1   
    16     6     9 1   
    17     7     9 1   
    18     7    10 1   
    19     7    21 1   
    20     7    22 1   
    21     8    14 1   
    22     8    29 2   
    23     9    23 1   
    24     9    24 1   
    25    10    25 1   
    26    10    26 1   
    27    11    12 ar  
    28    11    13 ar  
    29    12    27 1   
    30    13    14 1   
    31    14    28 1   
@<TRIPOS>SUBSTRUCTURE
     1 U4C         1 TEMP              0 ****  ****    0 ROOT
