@<TRIPOS>MOLECULE
U4D
   15    15     1     0     0
SMALL
No Charge or Current Charge


@<TRIPOS>ATOM
      1 C           31.9420   -13.7650    72.2080 ca         1 U4D       0.606300
      2 N           31.5680   -12.5920    72.7150 nb         1 U4D      -0.765000
      3 O           32.5950   -14.5400    73.0800 oh         1 U4D      -0.639300
      4 C1          31.6920   -14.1800    70.8980 ca         1 U4D      -0.187000
      5 C2          31.0010   -13.3120    70.0410 ca         1 U4D       0.005000
      6 C3          30.5990   -12.0610    70.5530 ca         1 U4D      -0.295300
      7 C4          30.9010   -11.7510    71.8920 ca         1 U4D       0.437900
      8 C5          29.8350   -11.0490    69.7080 c3         1 U4D       0.358300
      9 F           29.8930   -11.3220    68.3850 f          1 U4D      -0.112333
     10 F1          28.5270   -11.0160    70.0470 f          1 U4D      -0.112333
     11 F2          30.3180    -9.7970    69.8680 f          1 U4D      -0.112333
     12 H1          32.0270   -15.1550    70.5600 ha         1 U4D       0.147000
     13 H2          30.7860   -13.6100    69.0160 ha         1 U4D       0.137000
     14 H4          30.5980   -10.7970    72.3260 h4         1 U4D       0.039100
     15 H3          32.6060   -13.9820    73.8830 ho         1 U4D       0.491000
@<TRIPOS>BOND
     1     1     2 ar  
     2     1     3 1   
     3     1     4 ar  
     4     2     7 ar  
     5     3    15 1   
     6     4     5 ar  
     7     4    12 1   
     8     5     6 ar  
     9     5    13 1   
    10     6     7 ar  
    11     6     8 1   
    12     7    14 1   
    13     8     9 1   
    14     8    10 1   
    15     8    11 1   
@<TRIPOS>SUBSTRUCTURE
     1 U4D         1 TEMP              0 ****  ****    0 ROOT
