@<TRIPOS>MOLECULE
U4D
   15    15     1     0     0
SMALL
abcg2


@<TRIPOS>ATOM
      1 C           31.9410   -13.7220    72.2140 ca         1 U4D       0.606300
      2 N           31.6930   -12.4960    72.6510 nb         1 U4D      -0.765000
      3 O           32.6000   -14.5630    73.0280 oh         1 U4D      -0.639300
      4 C1          31.5540   -14.1900    70.9510 ca         1 U4D      -0.187000
      5 C2          30.8760   -13.3220    70.1270 ca         1 U4D       0.005000
      6 C3          30.6050   -12.0240    70.5780 ca         1 U4D      -0.295300
      7 C4          31.0330   -11.6610    71.8430 ca         1 U4D       0.437900
      8 C5          29.8490   -11.0750    69.7070 c3         1 U4D       0.358300
      9 F           30.3970   -10.9670    68.4720 f          1 U4D      -0.112333
     10 F1          28.5650   -11.4740    69.5100 f          1 U4D      -0.112333
     11 F2          29.7890    -9.8300    70.2190 f          1 U4D      -0.112333
     12 H1          31.7890   -15.2000    70.6490 ha         1 U4D       0.147000
     13 H2          30.5590   -13.6400    69.1430 ha         1 U4D       0.137000
     14 H4          30.8450   -10.6660    72.2280 h4         1 U4D       0.039100
     15 H3          32.7940   -14.0990    73.8590 ho         1 U4D       0.491000
@<TRIPOS>BOND
     1     1     2 ar  
     2     1     3 1   
     3     1     4 ar  
     4     2     7 ar  
     5     3    15 1   
     6     4     5 ar  
     7     4    12 1   
     8     5     6 ar  
     9     5    13 1   
    10     6     7 ar  
    11     6     8 1   
    12     7    14 1   
    13     8     9 1   
    14     8    10 1   
    15     8    11 1   
@<TRIPOS>SUBSTRUCTURE
     1 U4D         1 TEMP              0 ****  ****    0 ROOT
