@<TRIPOS>MOLECULE
U4F
   48    53     1     0     0
SMALL
No Charge or Current Charge


@<TRIPOS>ATOM
      1 OAR         32.4510   -53.4060    36.9390 os         1 U4F      -0.464000
      2 CAS         32.9640   -53.3030    38.2900 c5         1 U4F       0.121100
      3 CAT         34.0970   -52.2380    38.1750 c5         1 U4F       0.121100
      4 OAU         34.0340   -51.8290    36.7900 os         1 U4F      -0.464000
      5 CAO         33.4990   -52.9490    36.0660 c5         1 U4F       0.382000
      6 CAP         34.5890   -54.0470    35.8450 c6         1 U4F      -0.108900
      7 CAQ         34.3750   -54.8300    34.5340 c6         1 U4F       0.240300
      8 CAN         32.8920   -52.4690    34.7270 c6         1 U4F      -0.108900
      9 CAM         33.9170   -52.5230    33.5780 c6         1 U4F       0.240300
     10 NAL         34.3950   -53.9210    33.3510 nh         1 U4F      -0.808300
     11 CAK         34.9270   -54.3320    32.1130 ca         1 U4F       0.637900
     12 CAJ         34.9470   -55.6750    31.7110 ca         1 U4F      -0.185000
     13 CAI         35.4960   -56.0400    30.4590 ca         1 U4F       0.037000
     14 CBB         36.0020   -54.9780    29.6630 ca         1 U4F      -0.089000
     15 CAH         35.5410   -57.3990    30.0080 ca         1 U4F       0.000000
     16 CAG         35.0430   -58.4760    30.7910 ca         1 U4F      -0.110000
     17 CAF         35.0970   -59.8010    30.3310 ca         1 U4F      -0.088000
     18 CAE         35.6490   -60.0900    29.0800 ca         1 U4F      -0.115000
     19 CAD         36.1490   -59.0500    28.2880 ca         1 U4F      -0.057000
     20 CAC         36.1000   -57.7110    28.7400 ca         1 U4F      -0.148600
     21 CAB         36.6480   -56.6250    27.8630 c          1 U4F       0.591300
     22 OAA         37.1370   -56.8700    26.7630 o          1 U4F      -0.534100
     23 CBA         36.5710   -55.2260    28.3910 ca         1 U4F      -0.138600
     24 CAZ         37.0650   -54.1540    27.6170 ca         1 U4F      -0.057000
     25 CAY         36.9960   -52.8430    28.1010 ca         1 U4F      -0.110000
     26 CAX         36.4320   -52.5940    29.3590 ca         1 U4F      -0.073000
     27 CAW         35.9320   -53.6430    30.1520 ca         1 U4F       0.313000
     28 NAV         35.4020   -53.3400    31.3520 nb         1 U4F      -0.758000
     29 H1          32.1580   -52.9910    38.9680 h1         1 U4F       0.057200
     30 H2          33.3490   -54.2770    38.6200 h1         1 U4F       0.057200
     31 H3          35.0840   -52.6720    38.3880 h1         1 U4F       0.057200
     32 H4          33.9370   -51.3710    38.8290 h1         1 U4F       0.057200
     33 H5          34.6110   -54.7580    36.6800 hc         1 U4F       0.071450
     34 H6          35.5810   -53.5770    35.8170 hc         1 U4F       0.071450
     35 H7          33.4200   -55.3740    34.5800 h1         1 U4F       0.056200
     36 H8          35.1760   -55.5810    34.4540 h1         1 U4F       0.056200
     37 H9          32.5150   -51.4440    34.8360 hc         1 U4F       0.071450
     38 H10         32.0250   -53.0900    34.4670 hc         1 U4F       0.071450
     39 H11         34.7650   -51.8620    33.8100 h1         1 U4F       0.056200
     40 H12         33.4320   -52.1320    32.6700 h1         1 U4F       0.056200
     41 H13         34.5170   -56.4000    32.3830 ha         1 U4F       0.121000
     42 H14         34.6030   -58.3270    31.7690 ha         1 U4F       0.114000
     43 H15         34.7080   -60.6070    30.9510 ha         1 U4F       0.116000
     44 H16         35.6910   -61.1170    28.7240 ha         1 U4F       0.120000
     45 H17         36.5770   -59.2900    27.3160 ha         1 U4F       0.138000
     46 H18         37.5050   -54.3340    26.6380 ha         1 U4F       0.136000
     47 H19         37.3780   -52.0190    27.5020 ha         1 U4F       0.120000
     48 H20         36.3800   -51.5740    29.7300 ha         1 U4F       0.130000
@<TRIPOS>BOND
     1     1     2 1   
     2     1     5 1   
     3     2     3 1   
     4     2    29 1   
     5     2    30 1   
     6     3     4 1   
     7     3    31 1   
     8     3    32 1   
     9     4     5 1   
    10     5     6 1   
    11     5     8 1   
    12     6     7 1   
    13     6    33 1   
    14     6    34 1   
    15     7    10 1   
    16     7    35 1   
    17     7    36 1   
    18     8     9 1   
    19     8    37 1   
    20     8    38 1   
    21     9    10 1   
    22     9    39 1   
    23     9    40 1   
    24    10    11 1   
    25    11    12 ar  
    26    11    28 ar  
    27    12    13 ar  
    28    12    41 1   
    29    13    14 ar  
    30    13    15 1   
    31    14    23 ar  
    32    14    27 ar  
    33    15    16 ar  
    34    15    20 ar  
    35    16    17 ar  
    36    16    42 1   
    37    17    18 ar  
    38    17    43 1   
    39    18    19 ar  
    40    18    44 1   
    41    19    20 ar  
    42    19    45 1   
    43    20    21 1   
    44    21    22 2   
    45    21    23 1   
    46    23    24 ar  
    47    24    25 ar  
    48    24    46 1   
    49    25    26 ar  
    50    25    47 1   
    51    26    27 ar  
    52    26    48 1   
    53    27    28 ar  
@<TRIPOS>SUBSTRUCTURE
     1 U4F         1 TEMP              0 ****  ****    0 ROOT
