@<TRIPOS>MOLECULE
U4F
   48    53     1     0     0
SMALL
abcg2


@<TRIPOS>ATOM
      1 OAR         32.4230   -53.4640    36.6010 os         1 U4F      -0.464000
      2 CAS         32.6070   -53.5130    38.0220 c5         1 U4F       0.121100
      3 CAT         33.8180   -52.5930    38.2830 c5         1 U4F       0.121100
      4 OAU         34.1110   -52.0320    37.0000 os         1 U4F      -0.464000
      5 CAO         33.6300   -52.9590    36.0350 c5         1 U4F       0.382000
      6 CAP         34.6500   -54.0820    35.8020 c6         1 U4F      -0.108900
      7 CAQ         34.4360   -54.7670    34.4590 c6         1 U4F       0.240300
      8 CAN         33.3000   -52.2450    34.7300 c6         1 U4F      -0.108900
      9 CAM         34.3950   -52.3880    33.6830 c6         1 U4F       0.240300
     10 NAL         34.6100   -53.8010    33.3700 nh         1 U4F      -0.808300
     11 CAK         35.0400   -54.1740    32.1350 ca         1 U4F       0.637900
     12 CAJ         35.0760   -55.5620    31.7800 ca         1 U4F      -0.185000
     13 CAI         35.5210   -55.9560    30.5460 ca         1 U4F       0.037000
     14 CBB         35.9290   -54.9450    29.6260 ca         1 U4F      -0.089000
     15 CAH         35.5830   -57.3670    30.1330 ca         1 U4F       0.000000
     16 CAG         35.1870   -58.4070    30.9830 ca         1 U4F      -0.110000
     17 CAF         35.2560   -59.7290    30.5750 ca         1 U4F      -0.088000
     18 CAE         35.7260   -60.0500    29.3010 ca         1 U4F      -0.115000
     19 CAD         36.1230   -59.0370    28.4480 ca         1 U4F      -0.057000
     20 CAC         36.0560   -57.6980    28.8480 ca         1 U4F      -0.148600
     21 CAB         36.4950   -56.6550    27.8890 c          1 U4F       0.591300
     22 OAA         36.9140   -56.9550    26.7730 o          1 U4F      -0.534100
     23 CBA         36.4030   -55.2490    28.3300 ca         1 U4F      -0.138600
     24 CAZ         36.7760   -54.2290    27.4690 ca         1 U4F      -0.057000
     25 CAY         36.6830   -52.8940    27.8780 ca         1 U4F      -0.110000
     26 CAX         36.2210   -52.5790    29.1370 ca         1 U4F      -0.073000
     27 CAW         35.8350   -53.5910    30.0460 ca         1 U4F       0.313000
     28 NAV         35.4040   -53.2260    31.2800 nb         1 U4F      -0.758000
     29 H1          31.6920   -53.1520    38.4900 h1         1 U4F       0.057200
     30 H2          32.8010   -54.5350    38.3510 h1         1 U4F       0.057200
     31 H3          34.6740   -53.1570    38.6630 h1         1 U4F       0.057200
     32 H4          33.5950   -51.7750    38.9650 h1         1 U4F       0.057200
     33 H5          34.5850   -54.8230    36.5990 hc         1 U4F       0.071450
     34 H6          35.6530   -53.6510    35.8300 hc         1 U4F       0.071450
     35 H7          33.4410   -55.2260    34.4220 h1         1 U4F       0.056200
     36 H8          35.1690   -55.5640    34.3540 h1         1 U4F       0.056200
     37 H9          33.1170   -51.1910    34.9410 hc         1 U4F       0.071450
     38 H10         32.3750   -52.6720    34.3390 hc         1 U4F       0.071450
     39 H11         35.3250   -51.9200    34.0250 h1         1 U4F       0.056200
     40 H12         34.1030   -51.8780    32.7690 h1         1 U4F       0.056200
     41 H13         34.7250   -56.2910    32.4890 ha         1 U4F       0.121000
     42 H14         34.8220   -58.1910    31.9770 ha         1 U4F       0.114000
     43 H15         34.9430   -60.5130    31.2520 ha         1 U4F       0.116000
     44 H16         35.7800   -61.0840    28.9840 ha         1 U4F       0.120000
     45 H17         36.4910   -59.2610    27.4570 ha         1 U4F       0.138000
     46 H18         37.1360   -54.4780    26.4810 ha         1 U4F       0.136000
     47 H19         36.9760   -52.1030    27.1980 ha         1 U4F       0.120000
     48 H20         36.1470   -51.5480    29.4620 ha         1 U4F       0.130000
@<TRIPOS>BOND
     1     1     2 1   
     2     1     5 1   
     3     2     3 1   
     4     2    29 1   
     5     2    30 1   
     6     3     4 1   
     7     3    31 1   
     8     3    32 1   
     9     4     5 1   
    10     5     6 1   
    11     5     8 1   
    12     6     7 1   
    13     6    33 1   
    14     6    34 1   
    15     7    10 1   
    16     7    35 1   
    17     7    36 1   
    18     8     9 1   
    19     8    37 1   
    20     8    38 1   
    21     9    10 1   
    22     9    39 1   
    23     9    40 1   
    24    10    11 1   
    25    11    12 ar  
    26    11    28 ar  
    27    12    13 ar  
    28    12    41 1   
    29    13    14 ar  
    30    13    15 1   
    31    14    23 ar  
    32    14    27 ar  
    33    15    16 ar  
    34    15    20 ar  
    35    16    17 ar  
    36    16    42 1   
    37    17    18 ar  
    38    17    43 1   
    39    18    19 ar  
    40    18    44 1   
    41    19    20 ar  
    42    19    45 1   
    43    20    21 1   
    44    21    22 2   
    45    21    23 1   
    46    23    24 ar  
    47    24    25 ar  
    48    24    46 1   
    49    25    26 ar  
    50    25    47 1   
    51    26    27 ar  
    52    26    48 1   
    53    27    28 ar  
@<TRIPOS>SUBSTRUCTURE
     1 U4F         1 TEMP              0 ****  ****    0 ROOT
