@<TRIPOS>MOLECULE
U4G
   33    32     1     0     0
SMALL
No Charge or Current Charge


@<TRIPOS>ATOM
      1 C2         -31.3750     2.5180    63.2500 c3         1 U4G      -0.074400
      2 C1         -30.0640     1.7140    63.1580 c3         1 U4G      -0.088100
      3 C8         -38.6350     3.3230    60.7330 c3         1 U4G       0.215800
      4 C7         -37.3230     2.5160    60.6360 c3         1 U4G      -0.114400
      5 C9         -40.2470     1.6470    60.0060 c2         1 U4G       0.789100
      6 N1         -39.6500     2.7980    59.8060 nu         1 U4G      -0.895400
      7 N2         -41.2810     1.9890    60.7080 nv         1 U4G      -1.070200
      8 N3         -40.3340     0.8990    59.0240 n2         1 U4G      -0.901100
      9 C6         -36.2160     3.0540    61.5700 c3         1 U4G      -0.071400
     10 C5         -34.9020     2.2480    61.4760 c3         1 U4G      -0.074400
     11 C4         -33.7960     2.7860    62.4100 c3         1 U4G      -0.074400
     12 C3         -32.4820     1.9800    62.3170 c3         1 U4G      -0.075400
     13 H1         -31.1690     3.5670    63.0030 hc         1 U4G       0.036200
     14 H2         -31.7330     2.4980    64.2870 hc         1 U4G       0.036200
     15 H3         -29.3110     2.1320    63.8360 hc         1 U4G       0.031367
     16 H4         -30.2300     0.6660    63.4340 hc         1 U4G       0.031367
     17 H5         -29.6610     1.7440    62.1380 hc         1 U4G       0.031367
     18 H6         -38.4230     4.3730    60.4850 h1         1 U4G       0.045700
     19 H7         -39.0070     3.2950    61.7670 h1         1 U4G       0.045700
     20 H8         -37.5230     1.4670    60.8870 hc         1 U4G       0.052200
     21 H9         -36.9620     2.5370    59.6000 hc         1 U4G       0.052200
     22 H10        -39.3690     2.8260    58.8330 hn         1 U4G       0.483000
     23 H11        -41.1510     2.9670    60.9120 hn         1 U4G       0.455500
     24 H12        -42.1390     1.8160    60.2080 hn         1 U4G       0.455500
     25 H13        -41.1030     0.2470    59.2100 hn         1 U4G       0.378400
     26 H14        -36.0140     4.1030    61.3210 hc         1 U4G       0.036200
     27 H15        -36.5780     3.0350    62.6050 hc         1 U4G       0.036200
     28 H16        -35.1050     1.1990    61.7250 hc         1 U4G       0.039700
     29 H17        -34.5400     2.2670    60.4410 hc         1 U4G       0.039700
     30 H18        -33.5930     3.8350    62.1610 hc         1 U4G       0.036700
     31 H19        -34.1580     2.7660    63.4460 hc         1 U4G       0.036700
     32 H20        -32.6840     0.9310    62.5660 hc         1 U4G       0.037700
     33 H21        -32.1200     1.9990    61.2810 hc         1 U4G       0.037700
@<TRIPOS>BOND
     1     1     2 1   
     2     1    12 1   
     3     1    13 1   
     4     1    14 1   
     5     2    15 1   
     6     2    16 1   
     7     2    17 1   
     8     3     4 1   
     9     3     6 1   
    10     3    18 1   
    11     3    19 1   
    12     4     9 1   
    13     4    20 1   
    14     4    21 1   
    15     5     6 1   
    16     5     7 1   
    17     5     8 2   
    18     6    22 1   
    19     7    23 1   
    20     7    24 1   
    21     8    25 1   
    22     9    10 1   
    23     9    26 1   
    24     9    27 1   
    25    10    11 1   
    26    10    28 1   
    27    10    29 1   
    28    11    12 1   
    29    11    30 1   
    30    11    31 1   
    31    12    32 1   
    32    12    33 1   
@<TRIPOS>SUBSTRUCTURE
     1 U4G         1 TEMP              0 ****  ****    0 ROOT
