@<TRIPOS>MOLECULE
U4G
   33    32     1     0     0
SMALL
abcg2


@<TRIPOS>ATOM
      1 C2         -31.4980     2.5070    63.2200 c3         1 U4G      -0.074400
      2 C1         -30.2960     1.5750    63.2940 c3         1 U4G      -0.088100
      3 C8         -38.5700     3.5090    60.5570 c3         1 U4G       0.215800
      4 C7         -37.3160     2.6420    60.5210 c3         1 U4G      -0.114400
      5 C9         -40.2940     1.9100    59.7420 c2         1 U4G       0.789100
      6 N1         -39.6240     3.1040    59.6480 nu         1 U4G      -0.895400
      7 N2         -40.3690     1.3770    61.0070 nv         1 U4G      -1.070200
      8 N3         -40.7770     1.3790    58.6770 n2         1 U4G      -0.901100
      9 C6         -36.2210     3.1730    61.4380 c3         1 U4G      -0.071400
     10 C5         -34.9830     2.2850    61.4650 c3         1 U4G      -0.074400
     11 C4         -33.8580     2.8460    62.3260 c3         1 U4G      -0.074400
     12 C3         -32.6420     1.9310    62.3940 c3         1 U4G      -0.075400
     13 H1         -31.1950     3.4680    62.7940 hc         1 U4G       0.036200
     14 H2         -31.8570     2.7240    64.2310 hc         1 U4G       0.036200
     15 H3         -29.4900     2.0020    63.8910 hc         1 U4G       0.031367
     16 H4         -30.5690     0.6180    63.7430 hc         1 U4G       0.031367
     17 H5         -29.8960     1.3680    62.2990 hc         1 U4G       0.031367
     18 H6         -38.3120     4.5370    60.2960 h1         1 U4G       0.045700
     19 H7         -38.9580     3.5600    61.5790 h1         1 U4G       0.045700
     20 H8         -37.5720     1.6180    60.8090 hc         1 U4G       0.052200
     21 H9         -36.9430     2.5940    59.4930 hc         1 U4G       0.052200
     22 H10        -39.4680     3.3680    58.6870 hn         1 U4G       0.483000
     23 H11        -40.3550     2.0180    61.7850 hn         1 U4G       0.455500
     24 H12        -41.0540     0.6490    61.1290 hn         1 U4G       0.455500
     25 H13        -41.3200     0.5530    58.9030 hn         1 U4G       0.378400
     26 H14        -35.9380     4.1830    61.1200 hc         1 U4G       0.036200
     27 H15        -36.6130     3.2750    62.4560 hc         1 U4G       0.036200
     28 H16        -35.2600     1.2900    61.8300 hc         1 U4G       0.039700
     29 H17        -34.6170     2.1400    60.4420 hc         1 U4G       0.039700
     30 H18        -33.5570     3.8240    61.9340 hc         1 U4G       0.036700
     31 H19        -34.2320     3.0280    63.3400 hc         1 U4G       0.036700
     32 H20        -32.9380     0.9630    62.8120 hc         1 U4G       0.037700
     33 H21        -32.2850     1.7240    61.3790 hc         1 U4G       0.037700
@<TRIPOS>BOND
     1     1     2 1   
     2     1    12 1   
     3     1    13 1   
     4     1    14 1   
     5     2    15 1   
     6     2    16 1   
     7     2    17 1   
     8     3     4 1   
     9     3     6 1   
    10     3    18 1   
    11     3    19 1   
    12     4     9 1   
    13     4    20 1   
    14     4    21 1   
    15     5     6 1   
    16     5     7 1   
    17     5     8 2   
    18     6    22 1   
    19     7    23 1   
    20     7    24 1   
    21     8    25 1   
    22     9    10 1   
    23     9    26 1   
    24     9    27 1   
    25    10    11 1   
    26    10    28 1   
    27    10    29 1   
    28    11    12 1   
    29    11    30 1   
    30    11    31 1   
    31    12    32 1   
    32    12    33 1   
@<TRIPOS>SUBSTRUCTURE
     1 U4G         1 TEMP              0 ****  ****    0 ROOT
