@<TRIPOS>MOLECULE
U4I
   50    51     1     0     0
SMALL
abcg2


@<TRIPOS>ATOM
      1 C13        -53.9040   -12.1200    38.7760 c3         1 U4I       0.102800
      2 C15        -56.1920   -11.8950    39.5900 c3         1 U4I       0.170100
      3 C20        -56.6440    -9.0630    37.5840 ca         1 U4I      -0.001000
      4 C21        -56.4820    -7.6970    37.7740 ca         1 U4I      -0.094300
      5 C22        -57.6040    -6.8540    38.2990 c3         1 U4I      -0.050800
      6 C24        -54.1890    -7.9030    37.0110 ca         1 U4I      -0.191300
      7 C28        -54.3550    -9.2690    36.8180 ca         1 U4I       0.016000
      8 C01        -47.4000   -13.0070    45.3180 c3         1 U4I      -0.184100
      9 C05        -49.9210   -14.2550    42.8170 ca         1 U4I       0.012000
     10 C06        -50.0310   -15.6440    42.7290 ca         1 U4I      -0.155000
     11 C07        -50.9400   -16.1840    41.8330 ca         1 U4I      -0.061000
     12 C08        -51.7470   -15.4040    41.0190 ca         1 U4I      -0.154000
     13 C09        -51.6370   -14.0160    41.1090 ca         1 U4I       0.007000
     14 C11        -53.4630   -13.3560    39.5570 c          1 U4I       0.606100
     15 C19        -55.5840    -9.8310    37.1160 ca         1 U4I      -0.306500
     16 C23        -55.2400    -7.1330    37.4820 ca         1 U4I      -0.032000
     17 C29        -50.7280   -13.4590    42.0050 ca         1 U4I      -0.233000
     18 F26        -52.6140    -7.3920    35.3560 f          1 U4I      -0.118500
     19 F27        -51.8660    -7.9000    37.3350 f          1 U4I      -0.118500
     20 N04        -49.0500   -13.5810    43.6740 ns         1 U4I      -0.154000
     21 N10        -52.3760   -13.1190    40.3300 ns         1 U4I      -0.154000
     22 N14        -55.3150   -12.1890    38.4610 n3         1 U4I      -0.689500
     23 O03        -47.9720   -15.2680    44.7590 o          1 U4I      -0.570100
     24 O12        -54.0200   -14.4260    39.4400 o          1 U4I      -0.537100
     25 S16        -55.7770   -11.5910    36.9860 sy         1 U4I       1.154600
     26 H131       -53.6590   -11.1990    39.3190 h1         1 U4I       0.070700
     27 H132       -53.3060   -12.1150    37.8620 h1         1 U4I       0.070700
     28 H152       -57.2310   -12.0700    39.3250 h1         1 U4I       0.056700
     29 H153       -55.9450   -12.5720    40.4040 h1         1 U4I       0.056700
     30 H151       -56.0770   -10.8670    39.9480 h1         1 U4I       0.056700
     31 H201       -57.6030    -9.5190    37.7930 ha         1 U4I       0.139000
     32 H223       -57.5470    -6.7730    39.3860 hc         1 U4I       0.049700
     33 H221       -57.5650    -5.8430    37.8950 hc         1 U4I       0.049700
     34 H222       -58.5740    -7.2840    38.0530 hc         1 U4I       0.049700
     35 H281       -53.5440    -9.8760    36.4350 ha         1 U4I       0.147000
     36 H012       -46.6870   -13.4580    46.0020 hc         1 U4I       0.064367
     37 H013       -46.8640   -12.3560    44.6270 hc         1 U4I       0.064367
     38 H011       -48.0870   -12.3800    45.8880 hc         1 U4I       0.064367
     39 H061       -49.4270   -16.2950    43.3380 ha         1 U4I       0.151000
     40 H071       -51.0220   -17.2610    41.7630 ha         1 U4I       0.119000
     41 H081       -52.4340   -15.8730    40.3360 ha         1 U4I       0.149000
     42 H231       -55.0990    -6.0670    37.6240 ha         1 U4I       0.118000
     43 H251       -52.8430    -6.2010    36.9440 h2         1 U4I       0.064700
     44 H291       -50.6470   -12.3790    42.0750 ha         1 U4I       0.101000
     45 H041       -49.0970   -12.5740    43.6180 hn         1 U4I       0.146000
     46 H101       -52.0710   -12.1580    40.3830 hn         1 U4I       0.146000
     47 C25        -52.8790    -7.2610    36.6860 c3         1 U4I       0.229600
     48 O17        -54.8240   -12.0860    36.0080 o          1 U4I      -0.520500
     49 C02        -48.1530   -14.0810    44.5710 c          1 U4I       0.610100
     50 O18        -57.1900   -11.8820    36.8300 o          1 U4I      -0.520500
@<TRIPOS>BOND
     1     1    14 1   
     2     1    22 1   
     3     1    26 1   
     4     1    27 1   
     5     2    22 1   
     6     2    28 1   
     7     2    29 1   
     8     2    30 1   
     9     3     4 ar  
    10     3    15 ar  
    11     3    31 1   
    12     4     5 1   
    13     4    16 ar  
    14     5    32 1   
    15     5    33 1   
    16     5    34 1   
    17     6     7 ar  
    18     6    16 ar  
    19     6    47 1   
    20     7    15 ar  
    21     7    35 1   
    22     8    36 1   
    23     8    37 1   
    24     8    38 1   
    25     8    49 1   
    26     9    10 ar  
    27     9    17 ar  
    28     9    20 1   
    29    10    11 ar  
    30    10    39 1   
    31    11    12 ar  
    32    11    40 1   
    33    12    13 ar  
    34    12    41 1   
    35    13    17 ar  
    36    13    21 1   
    37    14    21 1   
    38    14    24 2   
    39    15    25 1   
    40    16    42 1   
    41    17    44 1   
    42    18    47 1   
    43    19    47 1   
    44    20    45 1   
    45    20    49 1   
    46    21    46 1   
    47    22    25 1   
    48    23    49 2   
    49    25    48 2   
    50    25    50 2   
    51    43    47 1   
@<TRIPOS>SUBSTRUCTURE
     1 U4I         1 TEMP              0 ****  ****    0 ROOT
