@<TRIPOS>MOLECULE
U4I
   50    51     1     0     0
SMALL
No Charge or Current Charge


@<TRIPOS>ATOM
      1 C13        -54.5980   -11.9970    39.0540 c3         1 U4I       0.102800
      2 C15        -56.2390   -13.6450    38.1430 c3         1 U4I       0.170100
      3 C20        -55.7110    -8.6060    38.4760 ca         1 U4I      -0.001000
      4 C21        -54.8850    -7.4780    38.3180 ca         1 U4I      -0.094300
      5 C22        -54.8700    -6.3850    39.3770 c3         1 U4I      -0.050800
      6 C24        -54.0670    -8.3790    36.1970 ca         1 U4I      -0.191300
      7 C28        -54.8980    -9.5050    36.3580 ca         1 U4I       0.016000
      8 C01        -48.9830   -13.0120    46.5450 c3         1 U4I      -0.184100
      9 C05        -50.2670   -13.8780    43.0270 ca         1 U4I       0.012000
     10 C06        -49.5890   -14.9260    42.3700 ca         1 U4I      -0.155000
     11 C07        -49.9790   -15.3200    41.0800 ca         1 U4I      -0.061000
     12 C08        -51.0440   -14.6740    40.4320 ca         1 U4I      -0.154000
     13 C09        -51.7300   -13.6210    41.0730 ca         1 U4I       0.007000
     14 C11        -53.3750   -12.9440    39.2160 c          1 U4I       0.606100
     15 C19        -55.7200    -9.6190    37.4960 ca         1 U4I      -0.306500
     16 C23        -54.0640    -7.3700    37.1790 ca         1 U4I      -0.032000
     17 C29        -51.3330   -13.2400    42.3680 ca         1 U4I      -0.233000
     18 F26        -53.8940    -8.2700    33.8280 f          1 U4I      -0.118500
     19 F27        -52.2940    -9.2820    34.8960 f          1 U4I      -0.118500
     20 N04        -49.9360   -13.4190    44.3310 ns         1 U4I      -0.154000
     21 N10        -52.8190   -12.9180    40.4900 ns         1 U4I      -0.154000
     22 N14        -55.6150   -12.3100    37.9910 n3         1 U4I      -0.689500
     23 O03        -48.1550   -14.7090    45.0590 o          1 U4I      -0.570100
     24 O12        -52.9440   -13.6340    38.2950 o          1 U4I      -0.537100
     25 S16        -56.7580   -11.0760    37.6950 sy         1 U4I       1.154600
     26 H131       -55.0980   -11.9490    40.0300 h1         1 U4I       0.070700
     27 H132       -54.1530   -11.0080    38.8880 h1         1 U4I       0.070700
     28 H152       -56.8810   -13.8790    37.2830 h1         1 U4I       0.056700
     29 H153       -55.4800   -14.4350    38.2050 h1         1 U4I       0.056700
     30 H151       -56.8550   -13.6920    39.0510 h1         1 U4I       0.056700
     31 H201       -56.3400    -8.6900    39.3620 ha         1 U4I       0.139000
     32 H223       -54.1060    -6.5890    40.1370 hc         1 U4I       0.049700
     33 H221       -54.6520    -5.4050    38.9370 hc         1 U4I       0.049700
     34 H222       -55.8380    -6.3080    39.8870 hc         1 U4I       0.049700
     35 H281       -54.8980   -10.2910    35.6040 ha         1 U4I       0.147000
     36 H012       -48.2110   -13.3380    47.2510 hc         1 U4I       0.064367
     37 H013       -48.8920   -11.9450    46.3100 hc         1 U4I       0.064367
     38 H011       -49.9850   -13.0680    46.9860 hc         1 U4I       0.064367
     39 H061       -48.7600   -15.4480    42.8380 ha         1 U4I       0.151000
     40 H071       -49.4530   -16.1310    40.5800 ha         1 U4I       0.119000
     41 H081       -51.3220   -15.0130    39.4390 ha         1 U4I       0.149000
     42 H231       -53.4210    -6.5000    37.0600 ha         1 U4I       0.118000
     43 H251       -52.6020    -7.3190    35.0050 h2         1 U4I       0.064700
     44 H291       -51.8610   -12.4310    42.8690 ha         1 U4I       0.101000
     45 H041       -50.5210   -12.6590    44.6530 hn         1 U4I       0.146000
     46 H101       -53.2750   -12.2790    41.1280 hn         1 U4I       0.146000
     47 C25        -53.1710    -8.2550    34.9710 c3         1 U4I       0.229600
     48 O17        -57.3370   -11.3770    36.3800 o          1 U4I      -0.520500
     49 C02        -48.9670   -13.8100    45.2440 c          1 U4I       0.610100
     50 O18        -57.5820   -10.9480    38.9020 o          1 U4I      -0.520500
@<TRIPOS>BOND
     1     1    14 1   
     2     1    22 1   
     3     1    26 1   
     4     1    27 1   
     5     2    22 1   
     6     2    28 1   
     7     2    29 1   
     8     2    30 1   
     9     3     4 ar  
    10     3    15 ar  
    11     3    31 1   
    12     4     5 1   
    13     4    16 ar  
    14     5    32 1   
    15     5    33 1   
    16     5    34 1   
    17     6     7 ar  
    18     6    16 ar  
    19     6    47 1   
    20     7    15 ar  
    21     7    35 1   
    22     8    36 1   
    23     8    37 1   
    24     8    38 1   
    25     8    49 1   
    26     9    10 ar  
    27     9    17 ar  
    28     9    20 1   
    29    10    11 ar  
    30    10    39 1   
    31    11    12 ar  
    32    11    40 1   
    33    12    13 ar  
    34    12    41 1   
    35    13    17 ar  
    36    13    21 1   
    37    14    21 1   
    38    14    24 2   
    39    15    25 1   
    40    16    42 1   
    41    17    44 1   
    42    18    47 1   
    43    19    47 1   
    44    20    45 1   
    45    20    49 1   
    46    21    46 1   
    47    22    25 1   
    48    23    49 2   
    49    25    48 2   
    50    25    50 2   
    51    43    47 1   
@<TRIPOS>SUBSTRUCTURE
     1 U4I         1 TEMP              0 ****  ****    0 ROOT
