@<TRIPOS>MOLECULE
U4J
   28    29     1     0     0
SMALL
No Charge or Current Charge


@<TRIPOS>ATOM
      1 C           -3.9690    -1.0730     0.4550 c          1 U4J       0.712600
      2 O           -5.1610    -0.8020     0.3980 o          1 U4J      -0.720500
      3 C1          -2.9590     0.0200     0.1460 ca         1 U4J      -0.138600
      4 C10          1.3800    -0.7910    -0.3740 ca         1 U4J      -0.074500
      5 C11         -1.0750     2.0530    -0.4210 ca         1 U4J      -0.124000
      6 C12         -2.4490     2.3260    -0.4930 ca         1 U4J      -0.151000
      7 C13         -3.3860     1.3190    -0.2120 ca         1 U4J      -0.077000
      8 C2          -1.5680    -0.2390     0.2130 ca         1 U4J      -0.070000
      9 C3          -0.6060     0.7650    -0.0680 cp         1 U4J      -0.083000
     10 C4           0.8620     0.4730     0.0080 cp         1 U4J      -0.026000
     11 C5           1.7810     1.4520     0.4630 ca         1 U4J      -0.074500
     12 C6           3.1580     1.1770     0.5340 ca         1 U4J      -0.175000
     13 C7           3.6540    -0.0780     0.1530 ca         1 U4J       0.112100
     14 C8           5.6210    -1.5430    -0.1220 c3         1 U4J       0.153900
     15 C9           2.7580    -1.0670    -0.3040 ca         1 U4J      -0.175000
     16 O1           5.0140    -0.2900     0.2440 os         1 U4J      -0.353100
     17 O2          -3.5580    -2.1870     0.7500 o          1 U4J      -0.720500
     18 H7           0.7090    -1.5620    -0.7430 ha         1 U4J       0.119500
     19 H8          -0.3700     2.8460    -0.6560 ha         1 U4J       0.084000
     20 H9          -2.7910     3.3210    -0.7700 ha         1 U4J       0.086000
     21 H10         -4.4470     1.5530    -0.2740 ha         1 U4J       0.127000
     22 H           -1.2260    -1.2290     0.5010 ha         1 U4J       0.129000
     23 H1           1.4220     2.4290     0.7760 ha         1 U4J       0.119500
     24 H2           3.8430     1.9420     0.8900 ha         1 U4J       0.109500
     25 H3           6.7070    -1.4960     0.0270 h1         1 U4J       0.032700
     26 H5           5.2280    -2.3610     0.4940 h1         1 U4J       0.032700
     27 H4           5.4320    -1.7730    -1.1780 h1         1 U4J       0.032700
     28 H6           3.1070    -2.0480    -0.6110 ha         1 U4J       0.109500
@<TRIPOS>BOND
     1     1     2 1   
     2     1     3 1   
     3     1    17 1   
     4     3     7 ar  
     5     3     8 ar  
     6     4    10 ar  
     7     4    15 ar  
     8     4    18 1   
     9     5     6 ar  
    10     5     9 ar  
    11     5    19 1   
    12     6     7 ar  
    13     6    20 1   
    14     7    21 1   
    15     8     9 ar  
    16     8    22 1   
    17     9    10 1   
    18    10    11 ar  
    19    11    12 ar  
    20    11    23 1   
    21    12    13 ar  
    22    12    24 1   
    23    13    15 ar  
    24    13    16 1   
    25    14    16 1   
    26    14    25 1   
    27    14    26 1   
    28    14    27 1   
    29    15    28 1   
@<TRIPOS>SUBSTRUCTURE
     1 U4J         1 TEMP              0 ****  ****    0 ROOT
