@<TRIPOS>MOLECULE
U4J
   28    29     1     0     0
SMALL
abcg2


@<TRIPOS>ATOM
      1 C           -3.9030    -1.0770     0.4520 c          1 U4J       0.712600
      2 O           -5.1060    -0.7800     0.3260 o          1 U4J      -0.720500
      3 C1          -2.8940     0.0230     0.1390 ca         1 U4J      -0.138600
      4 C10          1.3720    -0.7730    -0.3570 ca         1 U4J      -0.074500
      5 C11         -1.0360     2.0300    -0.4180 ca         1 U4J      -0.124000
      6 C12         -2.3960     2.2960    -0.4950 ca         1 U4J      -0.151000
      7 C13         -3.3210     1.2990    -0.2210 ca         1 U4J      -0.077000
      8 C2          -1.5290    -0.2280     0.2170 ca         1 U4J      -0.070000
      9 C3          -0.5820     0.7590    -0.0600 cp         1 U4J      -0.083000
     10 C4           0.8630     0.4670     0.0180 cp         1 U4J      -0.026000
     11 C5           1.7760     1.4260     0.4680 ca         1 U4J      -0.074500
     12 C6           3.1290     1.1600     0.5370 ca         1 U4J      -0.175000
     13 C7           3.6220    -0.0900     0.1550 ca         1 U4J       0.112100
     14 C8           5.5010    -1.5090    -0.1370 c3         1 U4J       0.153900
     15 C9           2.7300    -1.0590    -0.2950 ca         1 U4J      -0.175000
     16 O1           4.9540    -0.2640     0.2510 os         1 U4J      -0.353100
     17 O2          -3.4400    -2.1790     0.8050 o          1 U4J      -0.720500
     18 H7           0.7040    -1.5410    -0.7290 ha         1 U4J       0.119500
     19 H8          -0.3260     2.8120    -0.6570 ha         1 U4J       0.084000
     20 H9          -2.7320     3.2840    -0.7810 ha         1 U4J       0.086000
     21 H10         -4.3800     1.5090    -0.2870 ha         1 U4J       0.127000
     22 H           -1.2010    -1.2130     0.5230 ha         1 U4J       0.129000
     23 H1           1.4230     2.3990     0.7890 ha         1 U4J       0.119500
     24 H2           3.8150     1.9170     0.8970 ha         1 U4J       0.109500
     25 H3           6.5750    -1.4340     0.0120 h1         1 U4J       0.032700
     26 H5           5.1200    -2.3320     0.4740 h1         1 U4J       0.032700
     27 H4           5.3070    -1.7310    -1.1890 h1         1 U4J       0.032700
     28 H6           3.0680    -2.0360    -0.6120 ha         1 U4J       0.109500
@<TRIPOS>BOND
     1     1     2 1   
     2     1     3 1   
     3     1    17 1   
     4     3     7 ar  
     5     3     8 ar  
     6     4    10 ar  
     7     4    15 ar  
     8     4    18 1   
     9     5     6 ar  
    10     5     9 ar  
    11     5    19 1   
    12     6     7 ar  
    13     6    20 1   
    14     7    21 1   
    15     8     9 ar  
    16     8    22 1   
    17     9    10 1   
    18    10    11 ar  
    19    11    12 ar  
    20    11    23 1   
    21    12    13 ar  
    22    12    24 1   
    23    13    15 ar  
    24    13    16 1   
    25    14    16 1   
    26    14    25 1   
    27    14    26 1   
    28    14    27 1   
    29    15    28 1   
@<TRIPOS>SUBSTRUCTURE
     1 U4J         1 TEMP              0 ****  ****    0 ROOT
