@<TRIPOS>MOLECULE
U4K
   23    24     1     0     0
SMALL
bcc


@<TRIPOS>ATOM
      1 C01          0.1780    -6.4990     5.6860 ca         1 U4K      -0.144000
      2 C02          1.5620    -6.4920     5.9690 ca         1 U4K       0.003000
      3 C03          2.2130    -7.5830     6.5930 ca         1 U4K      -0.294300
      4 C04          3.5510    -7.4970     6.8290 ca         1 U4K       0.423200
      5 C06          3.7340    -5.3990     5.9260 ca         1 U4K       0.541600
      6 C08          6.3630    -4.5120     6.0140 c3         1 U4K      -0.135300
      7 C09          7.3680    -3.3960     5.6550 c          1 U4K       0.945600
      8 C12          2.3330    -5.3590     5.6200 ca         1 U4K      -0.154300
      9 C13          1.7000    -4.2630     4.9950 ca         1 U4K      -0.072000
     10 C14          0.3560    -4.2950     4.7320 ca         1 U4K      -0.163000
     11 C15         -0.4110    -5.4230     5.0800 ca         1 U4K      -0.117000
     12 N05          4.3030    -6.4220     6.5030 nb         1 U4K      -0.708000
     13 O10          6.9060    -2.3830     5.0990 o          1 U4K      -0.818800
     14 O11          8.5460    -3.6370     5.9660 o          1 U4K      -0.818800
     15 S07          4.7110    -4.0030     5.4930 ss         1 U4K      -0.245400
     16 H1          -0.4080    -7.3690     5.9560 ha         1 U4K       0.120000
     17 H2           1.6550    -8.4670     6.8730 ha         1 U4K       0.124000
     18 H3           4.0830    -8.3130     7.3040 h4         1 U4K       0.003100
     19 H4           6.6360    -5.4470     5.5220 h1         1 U4K       0.059200
     20 H5           6.3720    -4.7040     7.0880 h1         1 U4K       0.059200
     21 H6           2.2720    -3.3870     4.7180 ha         1 U4K       0.155000
     22 H7          -0.1200    -3.4490     4.2530 ha         1 U4K       0.123000
     23 H8          -1.4720    -5.4350     4.8660 ha         1 U4K       0.116000
@<TRIPOS>BOND
     1     1     2 ar  
     2     1    11 ar  
     3     1    16 1   
     4     2     3 ar  
     5     2     8 ar  
     6     3     4 ar  
     7     3    17 1   
     8     4    12 ar  
     9     4    18 1   
    10     5     8 ar  
    11     5    12 ar  
    12     5    15 1   
    13     6     7 1   
    14     6    15 1   
    15     6    19 1   
    16     6    20 1   
    17     7    13 1   
    18     7    14 1   
    19     8     9 ar  
    20     9    10 ar  
    21     9    21 1   
    22    10    11 ar  
    23    10    22 1   
    24    11    23 1   
@<TRIPOS>SUBSTRUCTURE
     1 U4K         1 TEMP              0 ****  ****    0 ROOT
