@<TRIPOS>MOLECULE
U4K
   23    24     1     0     0
SMALL
No Charge or Current Charge


@<TRIPOS>ATOM
      1 C01          0.1400    -6.5280     5.7300 ca         1 U4K      -0.126000
      2 C02          1.5290    -6.5030     5.9470 ca         1 U4K       0.003000
      3 C03          2.1890    -7.6140     6.4910 ca         1 U4K      -0.211000
      4 C04          3.5740    -7.5540     6.6940 ca         1 U4K       0.357900
      5 C06          3.6880    -5.3890     5.8630 ca         1 U4K       0.476300
      6 C08          6.4510    -4.4880     5.9620 c3         1 U4K      -0.087400
      7 C09          7.5020    -3.3930     5.7040 c          1 U4K       0.735000
      8 C12          2.2880    -5.3590     5.6220 ca         1 U4K      -0.089000
      9 C13          1.6310    -4.2330     5.0730 ca         1 U4K      -0.054000
     10 C14          0.2410    -4.2620     4.8570 ca         1 U4K      -0.145000
     11 C15         -0.5040    -5.4060     5.1840 ca         1 U4K      -0.099000
     12 N05          4.3140    -6.4680     6.3890 nb         1 U4K      -0.708000
     13 O10          8.0630    -3.3740     4.6170 o          1 U4K      -0.713500
     14 O11          7.7380    -2.5950     6.6010 o          1 U4K      -0.713500
     15 S07          4.7260    -3.9700     5.4760 ss         1 U4K      -0.293300
     16 H1          -0.4390    -7.4130     5.9820 ha         1 U4K       0.102000
     17 H2           1.6440    -8.5150     6.7560 ha         1 U4K       0.106000
     18 H3           4.1110    -8.4030     7.1150 h4         1 U4K       0.003100
     19 H4           6.7350    -5.3800     5.3910 h1         1 U4K       0.059200
     20 H5           6.4670    -4.7380     7.0290 h1         1 U4K       0.059200
     21 H6           2.1790    -3.3320     4.8090 ha         1 U4K       0.137000
     22 H7          -0.2590    -3.3930     4.4340 ha         1 U4K       0.105000
     23 H8          -1.5780    -5.4240     5.0150 ha         1 U4K       0.098000
@<TRIPOS>BOND
     1     1     2 ar  
     2     1    11 ar  
     3     1    16 1   
     4     2     3 ar  
     5     2     8 ar  
     6     3     4 ar  
     7     3    17 1   
     8     4    12 ar  
     9     4    18 1   
    10     5     8 ar  
    11     5    12 ar  
    12     5    15 1   
    13     6     7 1   
    14     6    15 1   
    15     6    19 1   
    16     6    20 1   
    17     7    13 1   
    18     7    14 1   
    19     8     9 ar  
    20     9    10 ar  
    21     9    21 1   
    22    10    11 ar  
    23    10    22 1   
    24    11    23 1   
@<TRIPOS>SUBSTRUCTURE
     1 U4K         1 TEMP              0 ****  ****    0 ROOT
