@<TRIPOS>MOLECULE
U4L
   65    70     1     0     0
SMALL
No Charge or Current Charge


@<TRIPOS>ATOM
      1 C11         -1.3450   -16.1760    22.8690 c3         1 U4L      -0.046800
      2 C6          -0.8880   -17.6260    23.0010 ca         1 U4L      -0.078300
      3 C7           0.5050   -17.8960    23.0480 ca         1 U4L      -0.072000
      4 C8           0.9830   -19.2170    23.1550 ca         1 U4L      -0.120000
      5 C9           0.0410   -20.2480    23.2120 ca         1 U4L      -0.034200
      6 N5           0.2420   -21.6100    23.3260 na         1 U4L      -0.076400
      7 N6          -0.9900   -22.2830    23.3650 nc         1 U4L      -0.515100
      8 C12         -1.9120   -21.3100    23.2700 cd         1 U4L       0.361800
      9 C10         -1.2950   -20.0050    23.1690 ca         1 U4L      -0.205900
     10 C5          -1.8300   -18.6990    23.0640 cp         1 U4L      -0.083500
     11 C2          -3.3110   -18.4780    23.0310 cp         1 U4L       0.280500
     12 C3          -4.1380   -18.9180    21.9710 ca         1 U4L      -0.271000
     13 C26         -3.5660   -19.5480    20.8210 cg         1 U4L       0.360000
     14 N8          -3.0890   -20.0680    19.8920 n1         1 U4L      -0.491000
     15 N2          -3.8330   -17.8180    24.0770 nb         1 U4L      -0.271000
     16 C1          -5.1530   -17.5870    24.0700 ca         1 U4L       0.445900
     17 N3          -5.6880   -16.8770    25.1660 nh         1 U4L      -0.775300
     18 C19         -7.1390   -16.5900    25.3390 c5         1 U4L       0.234800
     19 C20         -7.1920   -16.1430    26.8220 c5         1 U4L      -0.097400
     20 C21         -5.8670   -15.3500    26.9480 c5         1 U4L      -0.097400
     21 C22         -4.8650   -16.3210    26.2750 c5         1 U4L       0.234800
     22 N1          -6.0140   -17.9670    23.1160 nb         1 U4L      -0.354000
     23 C4          -5.5170   -18.6440    22.0690 ca         1 U4L       0.472900
     24 N4          -6.4760   -19.0160    21.0960 nh         1 U4L      -0.787300
     25 C13         -7.7690   -18.3250    20.9100 c5         1 U4L       0.243800
     26 C16         -6.5240   -20.3410    20.4230 c5         1 U4L       0.229800
     27 C15         -8.0540   -20.5200    20.1930 c5         1 U4L      -0.081400
     28 C14         -8.5030   -19.0830    19.7900 cy         1 U4L      -0.119000
     29 C18         -8.2880   -18.6230    18.3040 cy         1 U4L       0.118500
     30 C17        -10.0180   -18.7970    19.5040 cy         1 U4L       0.118500
     31 N7          -9.6980   -19.0720    18.0660 nj         1 U4L      -0.433800
     32 C23        -10.2620   -17.9170    17.4340 c          1 U4L       0.610100
     33 O1         -10.1760   -16.7140    17.6760 o          1 U4L      -0.609100
     34 C24        -11.1370   -18.3150    16.2390 c3         1 U4L      -0.153400
     35 C25        -12.6230   -18.4370    16.6430 c3         1 U4L      -0.084100
     36 H1          -2.1460   -16.0770    22.1260 hc         1 U4L       0.045700
     37 H2          -1.7220   -15.7950    23.8250 hc         1 U4L       0.045700
     38 H3          -0.5270   -15.5190    22.5510 hc         1 U4L       0.045700
     39 H4           1.2200   -17.0770    23.0010 ha         1 U4L       0.114000
     40 H5           2.0500   -19.4250    23.1930 ha         1 U4L       0.121000
     41 H6           1.1370   -22.0960    23.3790 hn         1 U4L       0.375000
     42 H7          -2.9620   -21.5780    23.2810 h4         1 U4L       0.051800
     43 H8          -7.4660   -15.7850    24.6650 h1         1 U4L       0.059700
     44 H9          -7.7730   -17.4710    25.1650 h1         1 U4L       0.059700
     45 H10         -8.0770   -15.5370    27.0430 hc         1 U4L       0.056450
     46 H11         -7.2060   -17.0080    27.4970 hc         1 U4L       0.056450
     47 H12         -5.9190   -14.3960    26.4080 hc         1 U4L       0.056450
     48 H13         -5.5990   -15.1270    27.9860 hc         1 U4L       0.056450
     49 H14         -4.5470   -17.1140    26.9670 h1         1 U4L       0.059700
     50 H15         -3.9710   -15.7890    25.9190 h1         1 U4L       0.059700
     51 H16         -7.6180   -17.2650    20.6610 h1         1 U4L       0.064700
     52 H17         -8.3500   -18.3460    21.8440 h1         1 U4L       0.064700
     53 H18         -6.1140   -21.1490    21.0450 h1         1 U4L       0.065700
     54 H19         -5.9790   -20.3240    19.4690 h1         1 U4L       0.065700
     55 H20         -8.5480   -20.8620    21.1100 hc         1 U4L       0.064700
     56 H21         -8.2620   -21.2730    19.4240 hc         1 U4L       0.064700
     57 H22         -7.5490   -19.2160    17.7550 h1         1 U4L       0.060950
     58 H23         -8.0590   -17.5550    18.2020 h1         1 U4L       0.060950
     59 H24        -10.3350   -17.7820    19.7760 h1         1 U4L       0.060950
     60 H25        -10.7010   -19.5330    19.9430 h1         1 U4L       0.060950
     61 H26        -11.0480   -17.5610    15.4480 hc         1 U4L       0.061200
     62 H27        -10.8240   -19.2980    15.8650 hc         1 U4L       0.061200
     63 H28        -13.2330   -18.7310    15.7810 hc         1 U4L       0.040700
     64 H29        -12.7500   -19.1930    17.4280 hc         1 U4L       0.040700
     65 H30        -13.0020   -17.4800    17.0220 hc         1 U4L       0.040700
@<TRIPOS>BOND
     1     1     2 1   
     2     1    36 1   
     3     1    37 1   
     4     1    38 1   
     5     2     3 ar  
     6     2    10 ar  
     7     3     4 ar  
     8     3    39 1   
     9     4     5 ar  
    10     4    40 1   
    11     5     6 1   
    12     5     9 ar  
    13     6     7 1   
    14     6    41 1   
    15     7     8 2   
    16     8     9 1   
    17     8    42 1   
    18     9    10 ar  
    19    10    11 1   
    20    11    12 ar  
    21    11    15 ar  
    22    12    13 1   
    23    12    23 ar  
    24    13    14 3   
    25    15    16 ar  
    26    16    17 1   
    27    16    22 ar  
    28    17    18 1   
    29    17    21 1   
    30    18    19 1   
    31    18    43 1   
    32    18    44 1   
    33    19    20 1   
    34    19    45 1   
    35    19    46 1   
    36    20    21 1   
    37    20    47 1   
    38    20    48 1   
    39    21    49 1   
    40    21    50 1   
    41    22    23 ar  
    42    23    24 1   
    43    24    25 1   
    44    24    26 1   
    45    25    28 1   
    46    25    51 1   
    47    25    52 1   
    48    26    27 1   
    49    26    53 1   
    50    26    54 1   
    51    27    28 1   
    52    27    55 1   
    53    27    56 1   
    54    28    29 1   
    55    28    30 1   
    56    29    31 1   
    57    29    57 1   
    58    29    58 1   
    59    30    31 1   
    60    30    59 1   
    61    30    60 1   
    62    31    32 1   
    63    32    33 2   
    64    32    34 1   
    65    34    35 1   
    66    34    61 1   
    67    34    62 1   
    68    35    63 1   
    69    35    64 1   
    70    35    65 1   
@<TRIPOS>SUBSTRUCTURE
     1 U4L         1 TEMP              0 ****  ****    0 ROOT
