@<TRIPOS>MOLECULE
U4L
   65    70     1     0     0
SMALL
abcg2


@<TRIPOS>ATOM
      1 C11         -1.3930   -16.4370    22.2030 c3         1 U4L      -0.046800
      2 C6          -0.9630   -17.7460    22.8120 ca         1 U4L      -0.078300
      3 C7           0.4190   -18.0170    22.9730 ca         1 U4L      -0.072000
      4 C8           0.9010   -19.2060    23.4800 ca         1 U4L      -0.120000
      5 C9          -0.0470   -20.1680    23.8440 ca         1 U4L      -0.034200
      6 N5           0.0680   -21.4220    24.3630 na         1 U4L      -0.076400
      7 N6          -1.1380   -22.0060    24.5580 nc         1 U4L      -0.515100
      8 C12         -2.0470   -21.1300    24.1670 cd         1 U4L       0.361800
      9 C10         -1.4330   -19.9330    23.7000 ca         1 U4L      -0.205900
     10 C5          -1.8910   -18.7090    23.1810 cp         1 U4L      -0.083500
     11 C2          -3.3560   -18.4900    23.0260 cp         1 U4L       0.280500
     12 C3          -4.0050   -18.9250    21.8570 ca         1 U4L      -0.271000
     13 C26         -3.2120   -19.4430    20.8110 cg         1 U4L       0.360000
     14 N8          -2.5140   -19.8340    19.9750 n1         1 U4L      -0.491000
     15 N2          -3.9820   -17.8910    24.0230 nb         1 U4L      -0.271000
     16 C1          -5.3130   -17.6690    23.8490 ca         1 U4L       0.445900
     17 N3          -5.9500   -17.0110    24.8240 nh         1 U4L      -0.775300
     18 C19         -7.3900   -16.7340    24.8060 c5         1 U4L       0.234800
     19 C20         -7.6680   -16.2240    26.2210 c5         1 U4L      -0.097400
     20 C21         -6.3490   -15.5540    26.6210 c5         1 U4L      -0.097400
     21 C22         -5.2890   -16.4770    26.0200 c5         1 U4L       0.234800
     22 N1          -6.0370   -18.0640    22.7920 nb         1 U4L      -0.354000
     23 C4          -5.4250   -18.7150    21.7970 ca         1 U4L       0.472900
     24 N4          -6.2050   -19.1280    20.7870 nh         1 U4L      -0.787300
     25 C13         -7.6400   -18.8190    20.7600 c5         1 U4L       0.243800
     26 C16         -5.8390   -20.0810    19.7250 c5         1 U4L       0.229800
     27 C15         -7.1940   -20.5540    19.2010 c5         1 U4L      -0.081400
     28 C14         -8.0830   -19.3340    19.4000 cy         1 U4L      -0.119000
     29 C18         -8.0590   -18.2900    18.2410 cy         1 U4L       0.118500
     30 C17         -9.6060   -19.4810    19.1710 cy         1 U4L       0.118500
     31 N7          -9.4970   -18.5000    18.0840 nj         1 U4L      -0.433800
     32 C23        -10.3780   -17.8720    17.3000 c          1 U4L       0.610100
     33 O1         -10.0190   -17.0130    16.4830 o          1 U4L      -0.609100
     34 C24        -11.8340   -18.2350    17.5000 c3         1 U4L      -0.153400
     35 C25        -12.5070   -17.2680    18.4830 c3         1 U4L      -0.084100
     36 H1          -1.5900   -16.5510    21.1330 hc         1 U4L       0.045700
     37 H2          -2.3060   -16.0580    22.6630 hc         1 U4L       0.045700
     38 H3          -0.6140   -15.6830    22.3160 hc         1 U4L       0.045700
     39 H4           1.1240   -17.2480    22.6820 ha         1 U4L       0.114000
     40 H5           1.9620   -19.3840    23.5910 ha         1 U4L       0.121000
     41 H6           0.9100   -21.9200    24.6010 hn         1 U4L       0.375000
     42 H7          -3.0970   -21.3710    24.2250 h4         1 U4L       0.051800
     43 H8          -7.6170   -15.9750    24.0510 h1         1 U4L       0.059700
     44 H9          -7.9490   -17.6340    24.5530 h1         1 U4L       0.059700
     45 H10         -8.5210   -15.5480    26.2510 hc         1 U4L       0.056450
     46 H11         -7.8760   -17.0670    26.8840 hc         1 U4L       0.056450
     47 H12         -6.2790   -14.5630    26.1660 hc         1 U4L       0.056450
     48 H13         -6.2320   -15.4440    27.6980 hc         1 U4L       0.056450
     49 H14         -5.0310   -17.2910    26.7040 h1         1 U4L       0.059700
     50 H15         -4.3700   -15.9600    25.7510 h1         1 U4L       0.059700
     51 H16         -7.8100   -17.7520    20.8940 h1         1 U4L       0.064700
     52 H17         -8.1620   -19.3480    21.5630 h1         1 U4L       0.064700
     53 H18         -5.2410   -20.8960    20.1270 h1         1 U4L       0.065700
     54 H19         -5.2650   -19.5820    18.9420 h1         1 U4L       0.065700
     55 H20         -7.5670   -21.3790    19.8130 hc         1 U4L       0.064700
     56 H21         -7.1460   -20.8850    18.1650 hc         1 U4L       0.064700
     57 H22         -7.4760   -18.5790    17.3640 h1         1 U4L       0.060950
     58 H23         -7.8000   -17.2710    18.5340 h1         1 U4L       0.060950
     59 H24        -10.2300   -19.1490    20.0030 h1         1 U4L       0.060950
     60 H25         -9.9290   -20.4700    18.8410 h1         1 U4L       0.060950
     61 H26        -12.3200   -18.1760    16.5260 hc         1 U4L       0.061200
     62 H27        -11.9290   -19.2610    17.8610 hc         1 U4L       0.061200
     63 H28        -13.5640   -17.5120    18.5910 hc         1 U4L       0.040700
     64 H29        -12.0430   -17.3250    19.4700 hc         1 U4L       0.040700
     65 H30        -12.4280   -16.2390    18.1280 hc         1 U4L       0.040700
@<TRIPOS>BOND
     1     1     2 1   
     2     1    36 1   
     3     1    37 1   
     4     1    38 1   
     5     2     3 ar  
     6     2    10 ar  
     7     3     4 ar  
     8     3    39 1   
     9     4     5 ar  
    10     4    40 1   
    11     5     6 1   
    12     5     9 ar  
    13     6     7 1   
    14     6    41 1   
    15     7     8 2   
    16     8     9 1   
    17     8    42 1   
    18     9    10 ar  
    19    10    11 1   
    20    11    12 ar  
    21    11    15 ar  
    22    12    13 1   
    23    12    23 ar  
    24    13    14 3   
    25    15    16 ar  
    26    16    17 1   
    27    16    22 ar  
    28    17    18 1   
    29    17    21 1   
    30    18    19 1   
    31    18    43 1   
    32    18    44 1   
    33    19    20 1   
    34    19    45 1   
    35    19    46 1   
    36    20    21 1   
    37    20    47 1   
    38    20    48 1   
    39    21    49 1   
    40    21    50 1   
    41    22    23 ar  
    42    23    24 1   
    43    24    25 1   
    44    24    26 1   
    45    25    28 1   
    46    25    51 1   
    47    25    52 1   
    48    26    27 1   
    49    26    53 1   
    50    26    54 1   
    51    27    28 1   
    52    27    55 1   
    53    27    56 1   
    54    28    29 1   
    55    28    30 1   
    56    29    31 1   
    57    29    57 1   
    58    29    58 1   
    59    30    31 1   
    60    30    59 1   
    61    30    60 1   
    62    31    32 1   
    63    32    33 2   
    64    32    34 1   
    65    34    35 1   
    66    34    61 1   
    67    34    62 1   
    68    35    63 1   
    69    35    64 1   
    70    35    65 1   
@<TRIPOS>SUBSTRUCTURE
     1 U4L         1 TEMP              0 ****  ****    0 ROOT
