@<TRIPOS>MOLECULE
U4N
   64    68     1     0     0
SMALL
No Charge or Current Charge


@<TRIPOS>ATOM
      1 C2           7.1750    -2.5150    37.6730 c3         1 U4N       0.344000
      2 C5           8.6140    -2.6550    38.1840 c3         1 U4N      -0.425400
      3 C11         11.0050    -1.1740    41.4920 ca         1 U4N      -0.084000
      4 C12         11.5790    -1.8690    42.5660 ca         1 U4N      -0.101000
      5 O14         11.3870    -3.4900    44.3420 os         1 U4N      -0.369400
      6 C15         12.2270    -2.9150    45.2650 ca         1 U4N       0.594300
      7 C17         12.7520    -1.1350    46.6480 ca         1 U4N       0.387900
      8 C18         13.8130    -1.8410    47.2290 ca         1 U4N      -0.202000
      9 C19         14.0820    -3.1470    46.8010 ca         1 U4N      -0.011000
     10 C21         13.5400    -5.1070    45.3010 cp         1 U4N       0.231500
     11 N22         13.8860    -6.0190    46.2300 nb         1 U4N      -0.259000
     12 C23         14.1610    -7.2680    45.8110 ca         1 U4N       0.389900
     13 C30         15.0380    -9.1050    50.4650 c6         1 U4N      -0.071400
     14 C31         16.3850    -8.3600    50.6460 c6         1 U4N       0.156800
     15 C33         16.0890    -7.2290    48.4640 c6         1 U4N       0.140800
     16 C34          9.4590    -3.0100    42.9640 ca         1 U4N      -0.037000
     17 C35          8.6780    -3.9300    43.7000 ca         1 U4N      -0.083000
     18 C36          7.3280    -4.1380    43.3770 ca         1 U4N      -0.105000
     19 C37          6.7420    -3.4220    42.3240 ca         1 U4N      -0.095000
     20 C38          7.5090    -2.5080    41.5850 ca         1 U4N      -0.107000
     21 C39          8.8760    -2.3010    41.8800 ca         1 U4N      -0.013000
     22 F1           6.4490    -1.6270    38.3870 f          1 U4N      -0.106667
     23 F3           6.5490    -3.7100    37.7520 f          1 U4N      -0.106667
     24 F4           7.1560    -2.1320    36.3770 f          1 U4N      -0.106667
     25 S6           9.4540    -1.1100    38.4480 s6         1 U4N       1.230100
     26 O7          10.8950    -1.3460    38.3830 o          1 U4N      -0.518000
     27 O8           8.8480    -0.0480    37.6470 o          1 U4N      -0.518000
     28 N9           9.1530    -0.6930    40.0250 nu         1 U4N      -0.949100
     29 C10          9.6650    -1.3910    41.1240 ca         1 U4N       0.269000
     30 C13         10.8110    -2.7840    43.3070 ca         1 U4N       0.145100
     31 N16         11.9630    -1.6600    45.6890 nb         1 U4N      -0.739000
     32 C20         13.2790    -3.7170    45.7830 cp         1 U4N      -0.218500
     33 N24         14.1340    -7.7110    44.5430 nb         1 U4N      -0.248000
     34 C25         13.8070    -6.8080    43.6010 ca         1 U4N       0.149900
     35 C26         13.5080    -5.4790    43.9360 ca         1 U4N      -0.259000
     36 N27         14.5090    -8.2170    46.7620 nu         1 U4N      -0.929100
     37 C28         14.7290    -7.9650    48.2050 c6         1 U4N       0.249500
     38 C29         14.7080    -9.3150    48.9650 c6         1 U4N      -0.090400
     39 N32         16.3890    -7.0690    49.9180 n7         1 U4N      -0.862400
     40 H1           8.6570    -3.2020    39.1280 h1         1 U4N       0.138200
     41 H2           9.2150    -3.1780    37.4360 h1         1 U4N       0.138200
     42 H3          11.6160    -0.4740    40.9280 ha         1 U4N       0.123000
     43 H4          12.6230    -1.7010    42.8170 ha         1 U4N       0.134000
     44 H5          12.5210    -0.1190    46.9660 h4         1 U4N       0.024100
     45 H6          14.4160    -1.3740    48.0030 ha         1 U4N       0.132000
     46 H7          14.9050    -3.7060    47.2430 ha         1 U4N       0.139000
     47 H9          15.0790   -10.0740    50.9790 hc         1 U4N       0.050200
     48 H10         17.2040    -8.9920    50.2720 h1         1 U4N       0.030700
     49 H11         16.5660    -8.1790    51.7160 h1         1 U4N       0.030700
     50 H12         16.9030    -7.7990    47.9920 h1         1 U4N       0.037200
     51 H13         16.0670    -6.2370    47.9900 h1         1 U4N       0.037200
     52 H14          9.1100    -4.4850    44.5290 ha         1 U4N       0.128000
     53 H15          6.7340    -4.8460    43.9510 ha         1 U4N       0.119000
     54 H16          5.6920    -3.5730    42.0810 ha         1 U4N       0.117000
     55 H17          7.0280    -1.9520    40.7880 ha         1 U4N       0.117000
     56 H18          9.4490     0.2750    39.9900 hn         1 U4N       0.517000
     57 H19         13.7950    -7.1520    42.5670 h4         1 U4N       0.021100
     58 H20         13.2710    -4.7590    43.1590 ha         1 U4N       0.143000
     59 H21         14.7110    -9.1460    46.3930 hn         1 U4N       0.505000
     60 H22         13.9180    -7.3400    48.6110 h1         1 U4N       0.087700
     61 H23         13.7220    -9.7900    48.8640 hc         1 U4N       0.044700
     62 H24         15.4400   -10.0070    48.5260 hc         1 U4N       0.044700
     63 H25         17.3140    -6.6290    50.0220 hn         1 U4N       0.415000
     64 H8          14.2340    -8.5310    50.9460 hc         1 U4N       0.050200
@<TRIPOS>BOND
     1     1     2 1   
     2     1    22 1   
     3     1    23 1   
     4     1    24 1   
     5     2    25 1   
     6     2    40 1   
     7     2    41 1   
     8     3     4 ar  
     9     3    29 ar  
    10     3    42 1   
    11     4    30 ar  
    12     4    43 1   
    13     5     6 1   
    14     5    30 1   
    15     6    31 ar  
    16     6    32 ar  
    17     7     8 ar  
    18     7    31 ar  
    19     7    44 1   
    20     8     9 ar  
    21     8    45 1   
    22     9    32 ar  
    23     9    46 1   
    24    10    11 ar  
    25    10    32 1   
    26    10    35 ar  
    27    11    12 ar  
    28    12    33 ar  
    29    12    36 1   
    30    13    14 1   
    31    13    38 1   
    32    13    47 1   
    33    13    64 1   
    34    14    39 1   
    35    14    48 1   
    36    14    49 1   
    37    15    37 1   
    38    15    39 1   
    39    15    50 1   
    40    15    51 1   
    41    16    17 ar  
    42    16    21 ar  
    43    16    30 ar  
    44    17    18 ar  
    45    17    52 1   
    46    18    19 ar  
    47    18    53 1   
    48    19    20 ar  
    49    19    54 1   
    50    20    21 ar  
    51    20    55 1   
    52    21    29 ar  
    53    25    26 2   
    54    25    27 2   
    55    25    28 1   
    56    28    29 1   
    57    28    56 1   
    58    33    34 ar  
    59    34    35 ar  
    60    34    57 1   
    61    35    58 1   
    62    36    37 1   
    63    36    59 1   
    64    37    38 1   
    65    37    60 1   
    66    38    61 1   
    67    38    62 1   
    68    39    63 1   
@<TRIPOS>SUBSTRUCTURE
     1 U4N         1 TEMP              0 ****  ****    0 ROOT
