@<TRIPOS>MOLECULE
U4N
   64    68     1     0     0
SMALL
abcg2


@<TRIPOS>ATOM
      1 C2           5.8200    -1.5880    38.9520 c3         1 U4N       0.344000
      2 C5           7.0240    -2.4460    38.6330 c3         1 U4N      -0.425400
      3 C11         11.2680    -1.4640    40.6450 ca         1 U4N      -0.084000
      4 C12         12.2680    -2.0250    41.4590 ca         1 U4N      -0.101000
      5 O14         12.9000    -3.4530    43.2330 os         1 U4N      -0.369400
      6 C15         13.0640    -2.9670    44.4870 ca         1 U4N       0.594300
      7 C17         12.5690    -1.3850    46.0410 ca         1 U4N       0.387900
      8 C18         13.2990    -2.0320    47.0190 ca         1 U4N      -0.202000
      9 C19         13.9430    -3.2100    46.6710 ca         1 U4N      -0.011000
     10 C21         14.5680    -4.9540    45.0290 cp         1 U4N       0.231500
     11 N22         14.5770    -5.8850    45.9760 nb         1 U4N      -0.259000
     12 C23         15.2770    -6.9970    45.7460 ca         1 U4N       0.389900
     13 C30         13.7660    -9.2380    49.9030 c6         1 U4N      -0.071400
     14 C31         14.5480    -8.3190    50.8290 c6         1 U4N       0.156800
     15 C33         15.3700    -7.0260    48.9780 c6         1 U4N       0.140800
     16 C34         10.5720    -3.2690    42.6710 ca         1 U4N      -0.037000
     17 C35         10.2020    -4.2120    43.6590 ca         1 U4N      -0.083000
     18 C36          8.8860    -4.5160    43.8730 ca         1 U4N      -0.105000
     19 C37          7.8810    -3.8810    43.1200 ca         1 U4N      -0.095000
     20 C38          8.2110    -2.9780    42.1470 ca         1 U4N      -0.107000
     21 C39          9.5620    -2.6630    41.8760 ca         1 U4N      -0.013000
     22 F1           5.9880    -0.8550    40.0590 f          1 U4N      -0.106667
     23 F3           4.7480    -2.3610    39.1510 f          1 U4N      -0.106667
     24 F4           5.5210    -0.7440    37.9660 f          1 U4N      -0.106667
     25 S6           8.5920    -1.5590    38.5320 s6         1 U4N       1.230100
     26 O7           9.5620    -2.5460    38.1030 o          1 U4N      -0.518000
     27 O8           8.3620    -0.3530    37.7610 o          1 U4N      -0.518000
     28 N9           8.9420    -1.1120    40.0780 nu         1 U4N      -0.949100
     29 C10          9.9470    -1.7550    40.8520 ca         1 U4N       0.269000
     30 C13         11.9200    -2.8950    42.4500 ca         1 U4N       0.145100
     31 N16         12.4490    -1.8530    44.8020 nb         1 U4N      -0.739000
     32 C20         13.8560    -3.7070    45.3760 cp         1 U4N      -0.218500
     33 N24         15.9820    -7.2520    44.6320 nb         1 U4N      -0.248000
     34 C25         15.9570    -6.3150    43.7050 ca         1 U4N       0.149900
     35 C26         15.2560    -5.1250    43.8340 ca         1 U4N      -0.259000
     36 N27         15.2820    -7.9540    46.6910 nu         1 U4N      -0.929100
     37 C28         14.6030    -7.8770    47.9650 c6         1 U4N       0.249500
     38 C29         14.4040    -9.2850    48.5190 c6         1 U4N      -0.090400
     39 N32         14.6460    -6.9980    50.2330 n7         1 U4N      -0.862400
     40 H1           7.1420    -3.2360    39.3760 h1         1 U4N       0.138200
     41 H2           6.8840    -2.9170    37.6570 h1         1 U4N       0.138200
     42 H3          11.5490    -0.7680    39.8650 ha         1 U4N       0.123000
     43 H4          13.3050    -1.7580    41.3060 ha         1 U4N       0.134000
     44 H5          12.0530    -0.4570    46.2540 h4         1 U4N       0.024100
     45 H6          13.3660    -1.6280    48.0190 ha         1 U4N       0.132000
     46 H7          14.5270    -3.7520    47.4040 ha         1 U4N       0.139000
     47 H9          13.7210   -10.2430    50.3270 hc         1 U4N       0.050200
     48 H10         15.5370    -8.7670    51.0230 h1         1 U4N       0.030700
     49 H11         14.0420    -8.2350    51.7930 h1         1 U4N       0.030700
     50 H12         16.3890    -7.4400    49.0760 h1         1 U4N       0.037200
     51 H13         15.4690    -6.0050    48.6020 h1         1 U4N       0.037200
     52 H14         10.9610    -4.7090    44.2480 ha         1 U4N       0.128000
     53 H15          8.6160    -5.2420    44.6280 ha         1 U4N       0.119000
     54 H16          6.8410    -4.1090    43.3120 ha         1 U4N       0.117000
     55 H17          7.4300    -2.4820    41.5900 ha         1 U4N       0.117000
     56 H18          8.7700    -0.1310    40.2650 hn         1 U4N       0.517000
     57 H19         16.5340    -6.5100    42.8070 h4         1 U4N       0.021100
     58 H20         15.2890    -4.3750    43.0590 ha         1 U4N       0.143000
     59 H21         15.8660    -8.7540    46.5050 hn         1 U4N       0.505000
     60 H22         13.6230    -7.4170    47.8110 h1         1 U4N       0.087700
     61 H23         13.7940    -9.8760    47.8310 hc         1 U4N       0.044700
     62 H24         15.3800    -9.7800    48.5880 hc         1 U4N       0.044700
     63 H25         15.1030    -6.3640    50.8750 hn         1 U4N       0.415000
     64 H8          12.7370    -8.8770    49.8230 hc         1 U4N       0.050200
@<TRIPOS>BOND
     1     1     2 1   
     2     1    22 1   
     3     1    23 1   
     4     1    24 1   
     5     2    25 1   
     6     2    40 1   
     7     2    41 1   
     8     3     4 ar  
     9     3    29 ar  
    10     3    42 1   
    11     4    30 ar  
    12     4    43 1   
    13     5     6 1   
    14     5    30 1   
    15     6    31 ar  
    16     6    32 ar  
    17     7     8 ar  
    18     7    31 ar  
    19     7    44 1   
    20     8     9 ar  
    21     8    45 1   
    22     9    32 ar  
    23     9    46 1   
    24    10    11 ar  
    25    10    32 1   
    26    10    35 ar  
    27    11    12 ar  
    28    12    33 ar  
    29    12    36 1   
    30    13    14 1   
    31    13    38 1   
    32    13    47 1   
    33    13    64 1   
    34    14    39 1   
    35    14    48 1   
    36    14    49 1   
    37    15    37 1   
    38    15    39 1   
    39    15    50 1   
    40    15    51 1   
    41    16    17 ar  
    42    16    21 ar  
    43    16    30 ar  
    44    17    18 ar  
    45    17    52 1   
    46    18    19 ar  
    47    18    53 1   
    48    19    20 ar  
    49    19    54 1   
    50    20    21 ar  
    51    20    55 1   
    52    21    29 ar  
    53    25    26 2   
    54    25    27 2   
    55    25    28 1   
    56    28    29 1   
    57    28    56 1   
    58    33    34 ar  
    59    34    35 ar  
    60    34    57 1   
    61    35    58 1   
    62    36    37 1   
    63    36    59 1   
    64    37    38 1   
    65    37    60 1   
    66    38    61 1   
    67    38    62 1   
    68    39    63 1   
@<TRIPOS>SUBSTRUCTURE
     1 U4N         1 TEMP              0 ****  ****    0 ROOT
