@<TRIPOS>MOLECULE
U4O
   62    67     1     0     0
SMALL
abcg2


@<TRIPOS>ATOM
      1 CAB         25.8350     2.3210     5.8510 c          1 U4O       0.510600
      2 CAD         24.1250     1.0790     4.5250 c6         1 U4O       0.094500
      3 CAE         23.6520    -0.3480     4.7540 c6         1 U4O       0.087000
      4 CAG         22.5850     0.7890     6.7000 c6         1 U4O       0.087000
      5 CAH         23.9760     1.3140     7.0050 c6         1 U4O       0.094500
      6 CAI         21.9610    -1.5180     6.0300 c          1 U4O       0.607700
      7 CAK         20.9560    -1.5240     7.1490 ca         1 U4O      -0.094600
      8 CAL         19.6920    -1.0250     6.9510 ca         1 U4O      -0.085300
      9 CAM         19.2630    -0.4170     5.6430 c6         1 U4O      -0.033100
     10 CAN         17.7970    -0.7380     5.3730 c6         1 U4O      -0.072400
     11 CAO         16.9230    -0.1720     6.4860 c6         1 U4O      -0.041200
     12 CAP         17.4140    -0.4990     7.8740 ce         1 U4O      -0.176000
     13 CAQ         16.6810    -0.2270     8.9770 cf         1 U4O      -0.224800
     14 CAR         15.3940     0.3910     9.0490 cd         1 U4O       0.173800
     15 CAS         14.4960     0.9620     8.1770 cc         1 U4O      -0.155000
     16 CAT         13.3900     1.4180     8.9500 cc         1 U4O      -0.194000
     17 CAU         13.6700     1.1050    10.2430 cd         1 U4O       0.142900
     18 CAW         18.7600    -1.0880     8.0370 ca         1 U4O       0.426800
     19 CAY         20.3170    -2.1190     9.4090 ca         1 U4O       0.274000
     20 CAZ         20.6370    -2.6770    10.6710 ca         1 U4O      -0.081000
     21 CBA         21.8950    -3.1630    10.9190 ca         1 U4O      -0.101000
     22 CBB         22.8920    -3.1180     9.9200 ca         1 U4O      -0.101000
     23 CBC         22.6100    -2.5920     8.6840 ca         1 U4O      -0.092000
     24 CBD         21.3200    -2.0870     8.3980 ca         1 U4O      -0.060000
     25 CBE         26.5130     2.7700     4.5840 ca         1 U4O       0.295500
     26 CBF         27.8690     2.5130     4.4090 ca         1 U4O      -0.115000
     27 CBG         28.4920     2.9890     3.2640 ca         1 U4O      -0.077000
     28 CBH         27.7440     3.7260     2.3540 ca         1 U4O      -0.148000
     29 CBI         26.3990     3.9460     2.6240 ca         1 U4O       0.330900
     30 NAC         24.6790     1.6400     5.7590 n          1 U4O      -0.398800
     31 NAF         22.6720    -0.3950     5.8450 n          1 U4O      -0.411800
     32 NAX         19.0730    -1.6270     9.2040 nb         1 U4O      -0.664000
     33 NBJ         25.7830     3.4720     3.7100 nb         1 U4O      -0.656000
     34 OAA         26.3410     2.6140     6.9400 o          1 U4O      -0.599100
     35 OAJ         22.1010    -2.5210     5.3240 o          1 U4O      -0.593100
     36 OAV         14.8750     0.4870    10.3270 os         1 U4O      -0.252000
     37 H1          24.8900     1.0670     3.7560 h1         1 U4O       0.065700
     38 H2          23.3020     1.6990     4.1640 h1         1 U4O       0.065700
     39 H3          23.1920    -0.7270     3.8420 h1         1 U4O       0.063950
     40 H4          24.5000    -0.9940     4.9950 h1         1 U4O       0.063950
     41 H5          21.9820     1.5600     6.2140 h1         1 U4O       0.063950
     42 H6          22.0980     0.5270     7.6340 h1         1 U4O       0.063950
     43 H7          24.5420     0.5680     7.5690 h1         1 U4O       0.065700
     44 H8          23.9020     2.2100     7.6190 h1         1 U4O       0.065700
     45 H9          19.8960    -0.7770     4.8320 hc         1 U4O       0.057200
     46 H10         19.3930     0.6710     5.6870 hc         1 U4O       0.057200
     47 H11         17.4870    -0.3240     4.4130 hc         1 U4O       0.052200
     48 H12         17.6740    -1.8230     5.3140 hc         1 U4O       0.052200
     49 H13         16.8660     0.9180     6.3770 hc         1 U4O       0.053700
     50 H14         15.8990    -0.5380     6.3750 hc         1 U4O       0.053700
     51 H15         17.1080    -0.4850     9.9380 ha         1 U4O       0.214000
     52 H16         14.6110     1.0610     7.1130 ha         1 U4O       0.140000
     53 H17         12.5050     1.9160     8.5900 ha         1 U4O       0.142000
     54 H18         13.1430     1.2470    11.1700 h4         1 U4O       0.053100
     55 H19         19.8640    -2.7000    11.4290 ha         1 U4O       0.132000
     56 H20         22.1310    -3.5840    11.8890 ha         1 U4O       0.119000
     57 H21         23.8810    -3.5010    10.1320 ha         1 U4O       0.118000
     58 H22         23.3760    -2.5620     7.9190 ha         1 U4O       0.123000
     59 H23         28.4140     1.9500     5.1550 ha         1 U4O       0.140000
     60 H24         29.5420     2.7930     3.0880 ha         1 U4O       0.126000
     61 H25         28.1890     4.1230     1.4520 ha         1 U4O       0.127000
     62 H26         25.7880     4.5250     1.9400 h4         1 U4O       0.024100
@<TRIPOS>BOND
     1     1    25 1   
     2     1    30 1   
     3     1    34 2   
     4     2     3 1   
     5     2    30 1   
     6     2    37 1   
     7     2    38 1   
     8     3    31 1   
     9     3    39 1   
    10     3    40 1   
    11     4     5 1   
    12     4    31 1   
    13     4    41 1   
    14     4    42 1   
    15     5    30 1   
    16     5    43 1   
    17     5    44 1   
    18     6     7 1   
    19     6    31 1   
    20     6    35 2   
    21     7     8 ar  
    22     7    24 ar  
    23     8     9 1   
    24     8    18 ar  
    25     9    10 1   
    26     9    45 1   
    27     9    46 1   
    28    10    11 1   
    29    10    47 1   
    30    10    48 1   
    31    11    12 1   
    32    11    49 1   
    33    11    50 1   
    34    12    13 2   
    35    12    18 1   
    36    13    14 1   
    37    13    51 1   
    38    14    15 2   
    39    14    36 1   
    40    15    16 1   
    41    15    52 1   
    42    16    17 2   
    43    16    53 1   
    44    17    36 1   
    45    17    54 1   
    46    18    32 ar  
    47    19    20 ar  
    48    19    24 ar  
    49    19    32 ar  
    50    20    21 ar  
    51    20    55 1   
    52    21    22 ar  
    53    21    56 1   
    54    22    23 ar  
    55    22    57 1   
    56    23    24 ar  
    57    23    58 1   
    58    25    26 ar  
    59    25    33 ar  
    60    26    27 ar  
    61    26    59 1   
    62    27    28 ar  
    63    27    60 1   
    64    28    29 ar  
    65    28    61 1   
    66    29    33 ar  
    67    29    62 1   
@<TRIPOS>SUBSTRUCTURE
     1 U4O         1 TEMP              0 ****  ****    0 ROOT
