@<TRIPOS>MOLECULE
U4O
   62    67     1     0     0
SMALL
No Charge or Current Charge


@<TRIPOS>ATOM
      1 CAB         25.6380     2.5660     5.6650 c          1 U4O       0.510600
      2 CAD         24.4840     0.4810     4.7280 c6         1 U4O       0.094500
      3 CAE         24.1210    -0.9550     5.1880 c6         1 U4O       0.087000
      4 CAG         23.1030     0.1200     7.2280 c6         1 U4O       0.087000
      5 CAH         24.3990     0.9720     7.1940 c6         1 U4O       0.094500
      6 CAI         22.2250    -2.1080     6.3970 c          1 U4O       0.607700
      7 CAK         21.1080    -1.9830     7.4010 ca         1 U4O      -0.094600
      8 CAL         19.9700    -1.1870     7.1210 ca         1 U4O      -0.085300
      9 CAM         19.8200    -0.4750     5.7690 c6         1 U4O      -0.033100
     10 CAN         18.3440    -0.2480     5.4090 c6         1 U4O      -0.072400
     11 CAO         17.6170     0.5060     6.5360 c6         1 U4O      -0.041200
     12 CAP         17.7270    -0.2080     7.8960 ce         1 U4O      -0.176000
     13 CAQ         16.7270    -0.0340     8.8250 cf         1 U4O      -0.224800
     14 CAR         15.5080     0.7760     8.7760 cd         1 U4O       0.173800
     15 CAS         15.2690     1.9770     8.1610 cc         1 U4O      -0.155000
     16 CAT         13.9590     2.3520     8.5100 cc         1 U4O      -0.194000
     17 CAU         13.4830     1.3690     9.3310 cd         1 U4O       0.142900
     18 CAW         18.9530    -1.0720     8.1030 ca         1 U4O       0.426800
     19 CAY         20.1020    -2.4880     9.5660 ca         1 U4O       0.274000
     20 CAZ         20.1650    -3.1480    10.8080 ca         1 U4O      -0.081000
     21 CBA         21.2630    -3.9560    11.1460 ca         1 U4O      -0.101000
     22 CBB         22.3190    -4.1110    10.2370 ca         1 U4O      -0.101000
     23 CBC         22.2760    -3.4630     8.9930 ca         1 U4O      -0.092000
     24 CBD         21.1690    -2.6520     8.6460 ca         1 U4O      -0.060000
     25 CBE         25.8980     3.1630     4.2620 ca         1 U4O       0.295500
     26 CBF         27.0390     3.9820     4.0830 ca         1 U4O      -0.115000
     27 CBG         27.2940     4.5760     2.8350 ca         1 U4O      -0.077000
     28 CBH         26.3870     4.3430     1.7920 ca         1 U4O      -0.148000
     29 CBI         25.2660     3.5360     2.0330 ca         1 U4O       0.330900
     30 NAC         24.7790     1.4420     5.8320 n          1 U4O      -0.398800
     31 NAF         23.0640    -0.9870     6.2310 n          1 U4O      -0.411800
     32 NAX         19.0320    -1.7120     9.2930 nb         1 U4O      -0.664000
     33 NBJ         25.0170     2.9630     3.2330 nb         1 U4O      -0.656000
     34 OAA         26.1400     3.0800     6.6630 o          1 U4O      -0.599100
     35 OAJ         22.3630    -3.1190     5.7200 o          1 U4O      -0.593100
     36 OAV         14.4260     0.3850     9.5320 os         1 U4O      -0.252000
     37 H1          25.3490     0.4170     4.0520 h1         1 U4O       0.065700
     38 H2          23.6380     0.8740     4.1460 h1         1 U4O       0.065700
     39 H3          23.8000    -1.5330     4.3100 h1         1 U4O       0.063950
     40 H4          25.0220    -1.4430     5.5870 h1         1 U4O       0.063950
     41 H5          22.2490     0.7850     7.0450 h1         1 U4O       0.063950
     42 H6          22.9840    -0.2900     8.2410 h1         1 U4O       0.063950
     43 H7          25.2280     0.3760     7.6010 h1         1 U4O       0.065700
     44 H8          24.2630     1.8350     7.8610 h1         1 U4O       0.065700
     45 H9          20.2870    -1.0560     4.9630 hc         1 U4O       0.057200
     46 H10         20.3410     0.4910     5.7990 hc         1 U4O       0.057200
     47 H11         18.2690     0.3160     4.4690 hc         1 U4O       0.052200
     48 H12         17.8530    -1.2160     5.2340 hc         1 U4O       0.052200
     49 H13         18.0230     1.5230     6.6230 hc         1 U4O       0.053700
     50 H14         16.5650     0.6080     6.2400 hc         1 U4O       0.053700
     51 H15         16.8040    -0.5960     9.7570 ha         1 U4O       0.214000
     52 H16         15.9500     2.5530     7.5430 ha         1 U4O       0.140000
     53 H17         13.4430     3.2540     8.1960 ha         1 U4O       0.142000
     54 H18         12.5280     1.2610     9.8300 h4         1 U4O       0.053100
     55 H19         19.3520    -3.0270    11.5180 ha         1 U4O       0.132000
     56 H20         21.2950    -4.4570    12.1110 ha         1 U4O       0.119000
     57 H21         23.1730    -4.7340    10.4970 ha         1 U4O       0.118000
     58 H22         23.1110    -3.6000     8.3110 ha         1 U4O       0.123000
     59 H23         27.7240     4.1510     4.9090 ha         1 U4O       0.140000
     60 H24         28.1710     5.2020     2.6840 ha         1 U4O       0.126000
     61 H25         26.5420     4.7810     0.8100 ha         1 U4O       0.127000
     62 H26         24.5410     3.3430     1.2440 h4         1 U4O       0.024100
@<TRIPOS>BOND
     1     1    25 1   
     2     1    30 1   
     3     1    34 2   
     4     2     3 1   
     5     2    30 1   
     6     2    37 1   
     7     2    38 1   
     8     3    31 1   
     9     3    39 1   
    10     3    40 1   
    11     4     5 1   
    12     4    31 1   
    13     4    41 1   
    14     4    42 1   
    15     5    30 1   
    16     5    43 1   
    17     5    44 1   
    18     6     7 1   
    19     6    31 1   
    20     6    35 2   
    21     7     8 ar  
    22     7    24 ar  
    23     8     9 1   
    24     8    18 ar  
    25     9    10 1   
    26     9    45 1   
    27     9    46 1   
    28    10    11 1   
    29    10    47 1   
    30    10    48 1   
    31    11    12 1   
    32    11    49 1   
    33    11    50 1   
    34    12    13 2   
    35    12    18 1   
    36    13    14 1   
    37    13    51 1   
    38    14    15 2   
    39    14    36 1   
    40    15    16 1   
    41    15    52 1   
    42    16    17 2   
    43    16    53 1   
    44    17    36 1   
    45    17    54 1   
    46    18    32 ar  
    47    19    20 ar  
    48    19    24 ar  
    49    19    32 ar  
    50    20    21 ar  
    51    20    55 1   
    52    21    22 ar  
    53    21    56 1   
    54    22    23 ar  
    55    22    57 1   
    56    23    24 ar  
    57    23    58 1   
    58    25    26 ar  
    59    25    33 ar  
    60    26    27 ar  
    61    26    59 1   
    62    27    28 ar  
    63    27    60 1   
    64    28    29 ar  
    65    28    61 1   
    66    29    33 ar  
    67    29    62 1   
@<TRIPOS>SUBSTRUCTURE
     1 U4O         1 TEMP              0 ****  ****    0 ROOT
