@<TRIPOS>MOLECULE
U4P
   28    29     1     0     0
SMALL
bcc


@<TRIPOS>ATOM
      1 OAC          2.7850   -56.7090    25.2940 o          1 U4P      -0.638500
      2 CAM          2.7680   -57.2960    24.2340 c          1 U4P       0.833500
      3 NAI          2.0300   -58.4350    24.0460 ns         1 U4P      -0.606500
      4 CAL          1.9070   -59.2000    22.8930 c          1 U4P       0.733700
      5 OAB          1.1960   -60.1860    22.8770 o          1 U4P      -0.597500
      6 CAK          2.6890   -58.6960    21.7910 cc         1 U4P      -0.328200
      7 CAG          3.4240   -57.5850    21.9550 cd         1 U4P       0.063600
      8 NAR          3.4740   -56.8750    23.1230 n          1 U4P      -0.382000
      9 C1           4.3150   -55.6880    23.2000 c5         1 U4P       0.316500
     10 O4           5.3610   -55.9200    24.0960 os         1 U4P      -0.398600
     11 C4           5.6500   -54.7280    24.8170 c5         1 U4P       0.136100
     12 C5           6.3000   -55.0730    26.1350 c3         1 U4P      -0.091100
     13 C3           4.3020   -54.0180    24.9370 c5         1 U4P       0.075100
     14 O3           4.4470   -52.6290    25.0770 oh         1 U4P      -0.597800
     15 C2           3.6090   -54.3820    23.6150 c5         1 U4P       0.103100
     16 O2           3.8820   -53.4350    22.6140 oh         1 U4P      -0.597800
     17 H1           1.5040   -58.7430    24.8550 hn         1 U4P       0.341500
     18 H2           2.6810   -59.2150    20.8450 ha         1 U4P       0.175000
     19 H3           4.0200   -57.1870    21.1460 h4         1 U4P       0.159000
     20 H4           4.6970   -55.5480    22.1830 h2         1 U4P       0.081700
     21 H5           6.3270   -54.0930    24.2270 h1         1 U4P       0.063700
     22 H6           6.5040   -54.1580    26.6910 hc         1 U4P       0.050033
     23 H7           5.6460   -55.7020    26.7410 hc         1 U4P       0.050033
     24 H8           7.2490   -55.5900    25.9940 hc         1 U4P       0.050033
     25 H9           3.7350   -54.4470    25.7650 h1         1 U4P       0.080700
     26 H10          4.1000   -52.3580    25.9310 ho         1 U4P       0.421000
     27 H11          2.5290   -54.5170    23.7410 h1         1 U4P       0.070700
     28 H12          3.7670   -52.5600    23.0050 ho         1 U4P       0.434000
@<TRIPOS>BOND
     1     1     2 2   
     2     2     3 1   
     3     2     8 1   
     4     3     4 1   
     5     3    17 1   
     6     4     5 2   
     7     4     6 1   
     8     6     7 2   
     9     6    18 1   
    10     7     8 1   
    11     7    19 1   
    12     8     9 1   
    13     9    10 1   
    14     9    15 1   
    15     9    20 1   
    16    10    11 1   
    17    11    12 1   
    18    11    13 1   
    19    11    21 1   
    20    12    22 1   
    21    12    23 1   
    22    12    24 1   
    23    13    14 1   
    24    13    15 1   
    25    13    25 1   
    26    14    26 1   
    27    15    16 1   
    28    15    27 1   
    29    16    28 1   
@<TRIPOS>SUBSTRUCTURE
     1 U4P         1 TEMP              0 ****  ****    0 ROOT
