@<TRIPOS>MOLECULE
U4P
   28    29     1     0     0
SMALL
No Charge or Current Charge


@<TRIPOS>ATOM
      1 OAC          3.0820   -57.1160    25.4020 o          1 U4P      -0.563000
      2 CAM          2.9280   -57.5310    24.2670 c          1 U4P       0.624000
      3 NAI          2.1080   -58.5960    24.0490 ns         1 U4P      -0.472500
      4 CAL          1.7740   -59.1740    22.8690 c          1 U4P       0.591200
      5 OAB          1.0230   -60.1310    22.8030 o          1 U4P      -0.522000
      6 CAK          2.3940   -58.5360    21.7130 cc         1 U4P      -0.378200
      7 CAG          3.2400   -57.4600    21.8440 cd         1 U4P       0.013600
      8 NAR          3.5210   -56.9590    23.1150 n          1 U4P      -0.315000
      9 C1           4.4980   -55.8400    23.2360 c5         1 U4P       0.339700
     10 O4           5.4110   -55.9880    24.3440 os         1 U4P      -0.445000
     11 C4           5.6220   -54.6720    24.8790 c5         1 U4P       0.159300
     12 C5           6.2880   -54.7780    26.2640 c3         1 U4P      -0.091100
     13 C3           4.1830   -54.0660    24.8700 c5         1 U4P       0.098300
     14 O3           4.1530   -52.6280    25.0070 oh         1 U4P      -0.720000
     15 C2           3.6960   -54.4960    23.4500 c5         1 U4P       0.126300
     16 O2           4.0660   -53.4570    22.5330 oh         1 U4P      -0.720000
     17 H1           1.6910   -59.0000    24.8710 hn         1 U4P       0.341500
     18 H2           2.1470   -58.9650    20.7490 ha         1 U4P       0.225000
     19 H3           3.7320   -56.9490    21.0180 h4         1 U4P       0.209000
     20 H4           5.0640   -55.7960    22.2970 h2         1 U4P       0.081700
     21 H5           6.2890   -54.1190    24.2030 h1         1 U4P       0.063700
     22 H6           6.4480   -53.7840    26.7000 hc         1 U4P       0.050033
     23 H7           5.6680   -55.3560    26.9600 hc         1 U4P       0.050033
     24 H8           7.2640   -55.2700    26.1910 hc         1 U4P       0.050033
     25 H9           3.5640   -54.5450    25.6430 h1         1 U4P       0.080700
     26 H10          4.2580   -52.4180    25.9670 ho         1 U4P       0.520000
     27 H11          2.6080   -54.6570    23.4360 h1         1 U4P       0.070700
     28 H12          4.1810   -52.6850    23.1510 ho         1 U4P       0.533000
@<TRIPOS>BOND
     1     1     2 2   
     2     2     3 1   
     3     2     8 1   
     4     3     4 1   
     5     3    17 1   
     6     4     5 2   
     7     4     6 1   
     8     6     7 2   
     9     6    18 1   
    10     7     8 1   
    11     7    19 1   
    12     8     9 1   
    13     9    10 1   
    14     9    15 1   
    15     9    20 1   
    16    10    11 1   
    17    11    12 1   
    18    11    13 1   
    19    11    21 1   
    20    12    22 1   
    21    12    23 1   
    22    12    24 1   
    23    13    14 1   
    24    13    15 1   
    25    13    25 1   
    26    14    26 1   
    27    15    16 1   
    28    15    27 1   
    29    16    28 1   
@<TRIPOS>SUBSTRUCTURE
     1 U4P         1 TEMP              0 ****  ****    0 ROOT
