@<TRIPOS>MOLECULE
U4Q
   15    15     1     0     0
SMALL
No Charge or Current Charge


@<TRIPOS>ATOM
      1 C10         12.5340    -3.6670   -20.3600 ca         1 U4Q       0.098000
      2 C02          8.9230    -3.4480   -22.7660 c          1 U4Q       0.619500
      3 C04         10.2220    -3.5150   -21.9110 ca         1 U4Q       0.239500
      4 C05         10.3530    -4.5260   -20.9240 ca         1 U4Q      -0.095000
      5 C06         11.5170    -4.6130   -20.1240 ca         1 U4Q      -0.167600
      6 C07         11.6480    -5.6860   -19.0770 c          1 U4Q       0.728600
      7 C12         12.3440    -2.6890   -21.3570 ca         1 U4Q       0.227900
      8 F11         13.6980    -3.6990   -19.6680 f          1 U4Q      -0.203000
      9 N13         11.2270    -2.6020   -22.1160 nb         1 U4Q      -0.652000
     10 O01          8.0350    -4.2690   -22.5630 o          1 U4Q      -0.729000
     11 O03          8.8080    -2.5790   -23.6250 o          1 U4Q      -0.729000
     12 O08         12.0700    -5.3830   -17.9710 o          1 U4Q      -0.730000
     13 O09         11.2500    -6.8080   -19.3580 o          1 U4Q      -0.730000
     14 H051         9.5480    -5.2400   -20.7740 ha         1 U4Q       0.146000
     15 H121        13.1170    -1.9500   -21.5620 h4         1 U4Q      -0.022900
@<TRIPOS>BOND
     1     1     5 ar  
     2     1     7 ar  
     3     1     8 1   
     4     2     3 1   
     5     2    10 1   
     6     2    11 1   
     7     3     4 ar  
     8     3     9 ar  
     9     4     5 ar  
    10     4    14 1   
    11     5     6 1   
    12     6    12 1   
    13     6    13 1   
    14     7     9 ar  
    15     7    15 1   
@<TRIPOS>SUBSTRUCTURE
     1 U4Q         1 TEMP              0 ****  ****    0 ROOT
