@<TRIPOS>MOLECULE
U4Q
   15    15     1     0     0
SMALL
abcg2


@<TRIPOS>ATOM
      1 C10         12.4800    -3.6650   -20.3900 ca         1 U4Q       0.098000
      2 C02          8.9620    -3.4390   -22.7440 c          1 U4Q       0.619500
      3 C04         10.2330    -3.5270   -21.8900 ca         1 U4Q       0.239500
      4 C05         10.3740    -4.5320   -20.9380 ca         1 U4Q      -0.095000
      5 C06         11.5100    -4.6200   -20.1400 ca         1 U4Q      -0.167600
      6 C07         11.6270    -5.6980   -19.0610 c          1 U4Q       0.728600
      7 C12         12.2960    -2.7000   -21.3660 ca         1 U4Q       0.227900
      8 F11         13.6450    -3.6620   -19.7250 f          1 U4Q      -0.203000
      9 N13         11.1940    -2.6270   -22.0940 nb         1 U4Q      -0.652000
     10 O01          8.0770    -4.2770   -22.4800 o          1 U4Q      -0.729000
     11 O03          8.9320    -2.5530   -23.6120 o          1 U4Q      -0.729000
     12 O08         12.1290    -5.3400   -17.9830 o          1 U4Q      -0.730000
     13 O09         11.1780    -6.8130   -19.3730 o          1 U4Q      -0.730000
     14 H051         9.5810    -5.2550   -20.8080 ha         1 U4Q       0.146000
     15 H121        13.0750    -1.9670   -21.5530 h4         1 U4Q      -0.022900
@<TRIPOS>BOND
     1     1     5 ar  
     2     1     7 ar  
     3     1     8 1   
     4     2     3 1   
     5     2    10 1   
     6     2    11 1   
     7     3     4 ar  
     8     3     9 ar  
     9     4     5 ar  
    10     4    14 1   
    11     5     6 1   
    12     6    12 1   
    13     6    13 1   
    14     7     9 ar  
    15     7    15 1   
@<TRIPOS>SUBSTRUCTURE
     1 U4Q         1 TEMP              0 ****  ****    0 ROOT
