@<TRIPOS>MOLECULE
U4R
   16    15     1     0     0
SMALL
No Charge or Current Charge


@<TRIPOS>ATOM
      1 C5           7.9760    17.0360    38.9220 c3         1 U4R       0.268800
      2 C6           7.4110    18.1040    38.0050 c2         1 U4R      -0.128200
      3 C7           6.2230    18.7170    38.1500 c2         1 U4R      -0.349200
      4 C8           5.6640    19.7760    37.2250 c3         1 U4R      -0.023900
      5 O1          10.1950    14.9320    39.4560 o          1 U4R      -0.924500
      6 O2           9.6760    16.2960    41.4120 o          1 U4R      -0.924500
      7 O3          11.6340    16.7880    40.0660 o          1 U4R      -0.924500
      8 O4           9.3670    17.3020    39.1060 os         1 U4R      -0.577400
      9 P1          10.2260    16.3050    40.0300 p5         1 U4R       1.268900
     10 H51          7.8230    16.0500    38.4650 h1         1 U4R      -0.000800
     11 H5           7.4460    17.0560    39.8840 h1         1 U4R      -0.000800
     12 H6           8.0650    18.3520    37.1680 ha         1 U4R       0.154000
     13 H71          5.5710    18.4630    38.9880 ha         1 U4R       0.151000
     14 H8           4.7120    19.4500    36.7890 hc         1 U4R       0.003367
     15 H82          5.4820    20.7110    37.7680 hc         1 U4R       0.003367
     16 H81          6.3530    19.9960    36.4000 hc         1 U4R       0.003367
@<TRIPOS>BOND
     1     1     2 1   
     2     1     8 1   
     3     1    10 1   
     4     1    11 1   
     5     2     3 2   
     6     2    12 1   
     7     3     4 1   
     8     3    13 1   
     9     4    14 1   
    10     4    15 1   
    11     4    16 1   
    12     5     9 1   
    13     6     9 1   
    14     7     9 1   
    15     8     9 1   
@<TRIPOS>SUBSTRUCTURE
     1 U4R         1 TEMP              0 ****  ****    0 ROOT
