@<TRIPOS>MOLECULE
U4R
   16    15     1     0     0
SMALL
abcg2


@<TRIPOS>ATOM
      1 C5           7.8890    17.1430    39.1750 c3         1 U4R       0.268800
      2 C6           7.3750    18.0510    38.1010 c2         1 U4R      -0.128200
      3 C7           6.2880    18.8090    38.2020 c2         1 U4R      -0.349200
      4 C8           5.7490    19.6910    37.1230 c3         1 U4R      -0.023900
      5 O1          10.4030    15.3890    38.6810 o          1 U4R      -0.924500
      6 O2           9.6060    15.5230    41.1140 o          1 U4R      -0.924500
      7 O3          11.5200    17.0490    40.3030 o          1 U4R      -0.924500
      8 O4           9.1960    17.5000    39.5200 os         1 U4R      -0.577400
      9 P1          10.2810    16.2380    39.9460 p5         1 U4R       1.268900
     10 H51          7.8380    16.1110    38.7990 h1         1 U4R      -0.000800
     11 H5           7.2100    17.1870    40.0390 h1         1 U4R      -0.000800
     12 H6           7.9450    18.0580    37.1730 ha         1 U4R       0.154000
     13 H71          5.7320    18.8000    39.1360 ha         1 U4R       0.151000
     14 H8           4.7220    19.4190    36.8680 hc         1 U4R       0.003367
     15 H82          5.7210    20.7360    37.4400 hc         1 U4R       0.003367
     16 H81          6.3470    19.6300    36.2140 hc         1 U4R       0.003367
@<TRIPOS>BOND
     1     1     2 1   
     2     1     8 1   
     3     1    10 1   
     4     1    11 1   
     5     2     3 2   
     6     2    12 1   
     7     3     4 1   
     8     3    13 1   
     9     4    14 1   
    10     4    15 1   
    11     4    16 1   
    12     5     9 1   
    13     6     9 1   
    14     7     9 1   
    15     8     9 1   
@<TRIPOS>SUBSTRUCTURE
     1 U4R         1 TEMP              0 ****  ****    0 ROOT
