@<TRIPOS>MOLECULE
U4S
   40    42     1     0     0
SMALL
bcc


@<TRIPOS>ATOM
      1 C4          -4.1360     1.6920     0.0480 c          1 U4S       0.733700
      2 C5          -3.9650     0.9560     1.2760 cc         1 U4S      -0.332200
      3 C6          -2.8960     0.1580     1.4230 cd         1 U4S       0.065600
      4 N1          -1.9420    -0.0150     0.4610 n          1 U4S      -0.387000
      5 N3          -3.1200     1.4720    -0.8700 ns         1 U4S      -0.604500
      6 CAJ          4.4680     0.6440     1.0560 c5         1 U4S       0.157300
      7 C8           2.7070    -0.8320     0.3170 c3         1 U4S       0.175800
      8 C7           1.2970    -0.9380    -0.2220 c5         1 U4S       0.149100
      9 O4           0.3980    -0.2400     0.6380 os         1 U4S      -0.371600
     10 C3           0.7660    -2.3670    -0.2550 c5         1 U4S       0.083100
     11 O3           1.2260    -3.0270    -1.4010 oh         1 U4S      -0.575800
     12 C2          -0.7420    -2.1330    -0.1980 c5         1 U4S       0.062100
     13 O2          -1.5050    -3.1680     0.3590 oh         1 U4S      -0.588800
     14 C1          -0.8190    -0.9130     0.7220 c5         1 U4S       0.321500
     15 O1          -5.0550     2.4460    -0.2140 o          1 U4S      -0.601500
     16 C9          -2.0250     0.6580    -0.7450 c          1 U4S       0.830500
     17 O5          -1.2040     0.5430    -1.6290 o          1 U4S      -0.630500
     18 CAI          3.4190     1.1400    -0.9340 c5         1 U4S       0.157300
     19 CAG          4.3010     2.3610    -0.6310 c5         1 U4S      -0.078900
     20 CAH          4.8890     2.0800     0.7670 c5         1 U4S      -0.078900
     21 NAT          3.1970     0.5230     0.3650 n3         1 U4S      -0.706600
     22 H5          -4.6890     1.0570     2.0680 ha         1 U4S       0.174000
     23 H6          -2.7370    -0.3990     2.3360 h4         1 U4S       0.157000
     24 HN3         -3.1860     1.9680    -1.7520 hn         1 U4S       0.341500
     25 HAJA         4.3560     0.4310     2.1210 h1         1 U4S       0.036950
     26 H7           2.7240    -1.2450     1.3300 h1         1 U4S       0.041200
     27 H5'A         3.3530    -1.4810    -0.3020 h1         1 U4S       0.041200
     28 H4           1.2400    -0.5170    -1.2330 h1         1 U4S       0.088700
     29 H3           1.0770    -2.8890     0.6630 h1         1 U4S       0.052700
     30 HO3          1.0730    -3.9710    -1.2980 ho         1 U4S       0.411000
     31 H2          -1.0860    -1.8850    -1.2080 h1         1 U4S       0.083700
     32 HO2         -1.7210    -3.7990    -0.3340 ho         1 U4S       0.418000
     33 H1          -0.9790    -1.2620     1.7480 h2         1 U4S       0.078700
     34 HAI          2.4780     1.4160    -1.4130 h1         1 U4S       0.036950
     35 HAIA         3.9440     0.4520    -1.6180 h1         1 U4S       0.036950
     36 HAG          5.0760     2.4720    -1.3880 hc         1 U4S       0.047200
     37 HAGA         3.7180     3.2820    -0.6330 hc         1 U4S       0.047200
     38 HAH          4.4590     2.7560     1.5070 hc         1 U4S       0.047200
     39 HAHA         5.9710     2.2030     0.8050 hc         1 U4S       0.047200
     40 HAJ          5.2180    -0.0600     0.6570 h1         1 U4S       0.036950
@<TRIPOS>BOND
     1     1     2 1   
     2     1     5 1   
     3     1    15 2   
     4     2     3 2   
     5     2    22 1   
     6     3     4 1   
     7     3    23 1   
     8     4    14 1   
     9     4    16 1   
    10     5    16 1   
    11     5    24 1   
    12     6    20 1   
    13     6    21 1   
    14     6    25 1   
    15     6    40 1   
    16     7     8 1   
    17     7    21 1   
    18     7    26 1   
    19     7    27 1   
    20     8     9 1   
    21     8    10 1   
    22     8    28 1   
    23     9    14 1   
    24    10    11 1   
    25    10    12 1   
    26    10    29 1   
    27    11    30 1   
    28    12    13 1   
    29    12    14 1   
    30    12    31 1   
    31    13    32 1   
    32    14    33 1   
    33    16    17 2   
    34    18    19 1   
    35    18    21 1   
    36    18    34 1   
    37    18    35 1   
    38    19    20 1   
    39    19    36 1   
    40    19    37 1   
    41    20    38 1   
    42    20    39 1   
@<TRIPOS>SUBSTRUCTURE
     1 U4S         1 TEMP              0 ****  ****    0 ROOT
