@<TRIPOS>MOLECULE
U4S
   40    42     1     0     0
SMALL
No Charge or Current Charge


@<TRIPOS>ATOM
      1 C4          -4.1290     1.7350    -0.0950 c          1 U4S       0.591200
      2 C5          -4.2090     0.7390     0.9670 cc         1 U4S      -0.382200
      3 C6          -3.1640    -0.1100     1.2460 cd         1 U4S       0.015600
      4 N1          -1.9900    -0.0220     0.5000 n          1 U4S      -0.320000
      5 N3          -2.9500     1.7170    -0.7640 ns         1 U4S      -0.470500
      6 CAJ          4.7690     0.5930     0.7970 c5         1 U4S       0.157300
      7 C8           2.7980    -0.8850     0.3640 c3         1 U4S       0.175800
      8 C7           1.3050    -1.0050    -0.0570 c5         1 U4S       0.172300
      9 O4           0.4430    -0.2390     0.8280 os         1 U4S      -0.418000
     10 C3           0.7210    -2.4490     0.0130 c5         1 U4S       0.106300
     11 O3           1.1920    -3.3220    -1.0250 oh         1 U4S      -0.698000
     12 C2          -0.7900    -2.1010    -0.1280 c5         1 U4S       0.085300
     13 O2          -1.6550    -3.2050     0.2110 oh         1 U4S      -0.711000
     14 C1          -0.8440    -0.8980     0.8770 c5         1 U4S       0.344700
     15 O1          -5.0250     2.5120    -0.3750 o          1 U4S      -0.526000
     16 C9          -1.8740     0.9100    -0.5600 c          1 U4S       0.621000
     17 O5          -0.9040     1.0030    -1.2930 o          1 U4S      -0.555000
     18 CAI          3.3750     1.1860    -0.9460 c5         1 U4S       0.157300
     19 CAG          4.1330     2.4980    -0.6050 c5         1 U4S      -0.078900
     20 CAH          5.0400     2.1080     0.6060 c5         1 U4S      -0.078900
     21 NAT          3.3640     0.4920     0.3600 n3         1 U4S      -0.706600
     22 H5          -5.1410     0.7140     1.5210 ha         1 U4S       0.224000
     23 H6          -3.1680    -0.8720     2.0240 h4         1 U4S       0.207000
     24 HN3         -2.8610     2.3810    -1.5170 hn         1 U4S       0.341500
     25 HAJA         4.9120     0.2770     1.8400 h1         1 U4S       0.036950
     26 H7           2.8950    -1.3120     1.3710 h1         1 U4S       0.041200
     27 H5'A         3.3870    -1.5240    -0.3080 h1         1 U4S       0.041200
     28 H4           1.1980    -0.6100    -1.0760 h1         1 U4S       0.088700
     29 H3           0.9290    -2.8880     1.0010 h1         1 U4S       0.052700
     30 HO3          0.9040    -4.2360    -0.7890 ho         1 U4S       0.510000
     31 H2          -1.0020    -1.7460    -1.1480 h1         1 U4S       0.083700
     32 HO2         -1.8050    -3.7280    -0.6120 ho         1 U4S       0.517000
     33 H1          -1.0210    -1.2590     1.8980 h2         1 U4S       0.078700
     34 HAI          2.3660     1.3870    -1.3300 h1         1 U4S       0.036950
     35 HAIA         3.9190     0.6010    -1.7020 h1         1 U4S       0.036950
     36 HAG          4.7120     2.8610    -1.4610 hc         1 U4S       0.047200
     37 HAGA         3.4340     3.2940    -0.3270 hc         1 U4S       0.047200
     38 HAH          4.7530     2.6710     1.5020 hc         1 U4S       0.047200
     39 HAHA         6.1000     2.3120     0.4210 hc         1 U4S       0.047200
     40 HAJ          5.4310    -0.0120     0.1610 h1         1 U4S       0.036950
@<TRIPOS>BOND
     1     1     2 1   
     2     1     5 1   
     3     1    15 2   
     4     2     3 2   
     5     2    22 1   
     6     3     4 1   
     7     3    23 1   
     8     4    14 1   
     9     4    16 1   
    10     5    16 1   
    11     5    24 1   
    12     6    20 1   
    13     6    21 1   
    14     6    25 1   
    15     6    40 1   
    16     7     8 1   
    17     7    21 1   
    18     7    26 1   
    19     7    27 1   
    20     8     9 1   
    21     8    10 1   
    22     8    28 1   
    23     9    14 1   
    24    10    11 1   
    25    10    12 1   
    26    10    29 1   
    27    11    30 1   
    28    12    13 1   
    29    12    14 1   
    30    12    31 1   
    31    13    32 1   
    32    14    33 1   
    33    16    17 2   
    34    18    19 1   
    35    18    21 1   
    36    18    34 1   
    37    18    35 1   
    38    19    20 1   
    39    19    36 1   
    40    19    37 1   
    41    20    38 1   
    42    20    39 1   
@<TRIPOS>SUBSTRUCTURE
     1 U4S         1 TEMP              0 ****  ****    0 ROOT
