@<TRIPOS>MOLECULE
U4T
   25    27     1     0     0
SMALL
bcc


@<TRIPOS>ATOM
      1 C13          0.8340    -4.8840     4.4440 ca         1 U4T      -0.136000
      2 C15         -1.0750    -6.2630     4.9190 ca         1 U4T      -0.158000
      3 C01          0.9900    -6.6130     6.1300 ca         1 U4T      -0.084300
      4 C02          1.7820    -7.2920     7.2160 c6         1 U4T      -0.023100
      5 C03          3.2580    -7.4470     6.8590 c6         1 U4T      -0.005100
      6 C04          3.8010    -6.1450     6.3560 cc         1 U4T      -0.092300
      7 C05          5.1310    -5.6630     6.4480 cc         1 U4T      -0.175000
      8 C06          5.3060    -4.4510     5.8450 cd         1 U4T      -0.057700
      9 C07          6.5410    -3.5970     5.7240 c          1 U4T       0.944200
     10 C11          2.9810    -5.2810     5.6750 cd         1 U4T      -0.115100
     11 C12          1.5830    -5.5700     5.3990 ca         1 U4T       0.050000
     12 C14         -0.4890    -5.2240     4.2080 ca         1 U4T      -0.131000
     13 C16         -0.3320    -6.9480     5.8730 ca         1 U4T      -0.130000
     14 O08          6.3840    -2.5300     5.1000 o          1 U4T      -0.811800
     15 O09          7.5740    -4.0420     6.2520 o          1 U4T      -0.811800
     16 S10          3.8370    -3.8800     5.1530 ss         1 U4T      -0.052800
     17 H1           1.2890    -4.0850     3.8700 ha         1 U4T       0.136000
     18 H2          -2.1040    -6.5390     4.7330 ha         1 U4T       0.114000
     19 H3           1.7070    -6.6870     8.1270 hc         1 U4T       0.038700
     20 H4           1.3420    -8.2620     7.4520 hc         1 U4T       0.038700
     21 H5           3.3820    -8.2190     6.0920 hc         1 U4T       0.040200
     22 H6           3.8190    -7.7870     7.7310 hc         1 U4T       0.040200
     23 H7           5.9300    -6.1940     6.9470 ha         1 U4T       0.155000
     24 H8          -1.0590    -4.6830     3.4630 ha         1 U4T       0.116000
     25 H9          -0.7900    -7.7560     6.4320 ha         1 U4T       0.113000
@<TRIPOS>BOND
     1     1    11 ar  
     2     1    12 ar  
     3     1    17 1   
     4     2    12 ar  
     5     2    13 ar  
     6     2    18 1   
     7     3     4 1   
     8     3    11 ar  
     9     3    13 ar  
    10     4     5 1   
    11     4    19 1   
    12     4    20 1   
    13     5     6 1   
    14     5    21 1   
    15     5    22 1   
    16     6     7 1   
    17     6    10 2   
    18     7     8 2   
    19     7    23 1   
    20     8     9 1   
    21     8    16 1   
    22     9    14 1   
    23     9    15 1   
    24    10    11 1   
    25    10    16 1   
    26    12    24 1   
    27    13    25 1   
@<TRIPOS>SUBSTRUCTURE
     1 U4T         1 TEMP              0 ****  ****    0 ROOT
