@<TRIPOS>MOLECULE
U4T
   25    27     1     0     0
SMALL
No Charge or Current Charge


@<TRIPOS>ATOM
      1 C13          0.7900    -4.8700     4.4110 ca         1 U4T      -0.118000
      2 C15         -1.1450    -6.2400     4.9580 ca         1 U4T      -0.140000
      3 C01          0.9830    -6.6430     6.0810 ca         1 U4T      -0.084300
      4 C02          1.7980    -7.3800     7.1630 c6         1 U4T      -0.023100
      5 C03          3.3330    -7.3970     6.9190 c6         1 U4T      -0.005100
      6 C04          3.7960    -6.0920     6.3210 cc         1 U4T      -0.092300
      7 C05          5.1140    -5.5910     6.4550 cc         1 U4T      -0.157000
      8 C06          5.3160    -4.3970     5.7940 cd         1 U4T      -0.202600
      9 C07          6.5950    -3.6430     5.7580 c          1 U4T       0.733600
     10 C11          2.9900    -5.3040     5.5530 cd         1 U4T      -0.260000
     11 C12          1.5700    -5.5950     5.3340 ca         1 U4T       0.050000
     12 C14         -0.5640    -5.1950     4.2220 ca         1 U4T      -0.113000
     13 C16         -0.3760    -6.9580     5.8900 ca         1 U4T      -0.112000
     14 O08          6.6350    -2.5960     5.1290 o          1 U4T      -0.706500
     15 O09          7.5610    -4.0940     6.3570 o          1 U4T      -0.706500
     16 S10          3.8400    -3.8600     4.9650 ss         1 U4T       0.237000
     17 H1           1.2290    -4.0630     3.8310 ha         1 U4T       0.118000
     18 H2          -2.1940    -6.4890     4.8140 ha         1 U4T       0.096000
     19 H3           1.6030    -6.8880     8.1260 hc         1 U4T       0.038700
     20 H4           1.4370    -8.4110     7.2750 hc         1 U4T       0.038700
     21 H5           3.5770    -8.2190     6.2330 hc         1 U4T       0.040200
     22 H6           3.8570    -7.6160     7.8600 hc         1 U4T       0.040200
     23 H7           5.8800    -6.1110     7.0230 ha         1 U4T       0.137000
     24 H8          -1.1620    -4.6380     3.5040 ha         1 U4T       0.098000
     25 H9          -0.8390    -7.7520     6.4710 ha         1 U4T       0.095000
@<TRIPOS>BOND
     1     1    11 ar  
     2     1    12 ar  
     3     1    17 1   
     4     2    12 ar  
     5     2    13 ar  
     6     2    18 1   
     7     3     4 1   
     8     3    11 ar  
     9     3    13 ar  
    10     4     5 1   
    11     4    19 1   
    12     4    20 1   
    13     5     6 1   
    14     5    21 1   
    15     5    22 1   
    16     6     7 1   
    17     6    10 2   
    18     7     8 2   
    19     7    23 1   
    20     8     9 1   
    21     8    16 1   
    22     9    14 1   
    23     9    15 1   
    24    10    11 1   
    25    10    16 1   
    26    12    24 1   
    27    13    25 1   
@<TRIPOS>SUBSTRUCTURE
     1 U4T         1 TEMP              0 ****  ****    0 ROOT
