@<TRIPOS>MOLECULE
U4U
   52    55     1     0     0
SMALL
abcg2


@<TRIPOS>ATOM
      1 C23         16.1520    -6.7380     4.0530 c1         1 U4U      -0.223000
      2 C13         15.1130    -6.1700     3.8380 cg         1 U4U      -0.120000
      3 C2          13.8800    -5.5010     3.5890 ca         1 U4U       0.048000
      4 C3          13.0510    -5.9110     2.5430 ca         1 U4U      -0.083000
      5 C4          11.8380    -5.2900     2.2640 ca         1 U4U      -0.116300
      6 C7          11.0400    -5.7650     1.0630 c3         1 U4U       0.229100
      7 N1          10.3530    -4.6740     0.3850 n3         1 U4U      -0.732600
      8 C10         10.2480    -4.8570    -1.0580 c6         1 U4U       0.158800
      9 C11          9.7100    -3.5910    -1.7110 c6         1 U4U       0.104000
     10 N2           8.4420    -3.2070    -1.1010 n          1 U4U      -0.419800
     11 C20          7.2570    -3.0780    -1.7480 c          1 U4U       0.600100
     12 O3           6.2200    -2.7830    -1.1470 o          1 U4U      -0.609100
     13 C21          7.2510    -3.3080    -3.2530 c3         1 U4U      -0.150400
     14 C22          5.8760    -3.1160    -3.8790 c3         1 U4U      -0.076100
     15 C12          8.5190    -3.0690     0.3470 c6         1 U4U       0.099000
     16 C8           9.0510    -4.3590     0.9670 c6         1 U4U       0.138500
     17 C9           9.1350    -4.2750     2.4840 c3         1 U4U       0.163600
     18 O1          10.2760    -3.5290     2.9450 os         1 U4U      -0.323100
     19 C5          11.4350    -4.2230     3.0770 ca         1 U4U       0.117100
     20 C6          12.2830    -3.8120     4.1080 ca         1 U4U       0.163000
     21 F1          11.8780    -2.7760     4.8770 f          1 U4U      -0.163000
     22 C1          13.4910    -4.4140     4.3930 cp         1 U4U      -0.013000
     23 C14         14.3340    -3.9290     5.5130 cp         1 U4U      -0.063000
     24 C15         14.2240    -4.4400     6.8050 ca         1 U4U       0.181000
     25 CL1         13.0330    -5.6830     7.1270 cl         1 U4U      -0.199000
     26 C16         15.0260    -4.0060     7.8510 ca         1 U4U      -0.144000
     27 C17         15.9730    -3.0220     7.5950 ca         1 U4U      -0.054000
     28 C18         16.1130    -2.4830     6.3240 ca         1 U4U      -0.205000
     29 C19         15.2960    -2.9350     5.2900 ca         1 U4U       0.167100
     30 O2          15.3930    -2.4450     4.0250 oh         1 U4U      -0.521100
     31 H1          17.0720    -7.2410     4.2400 ha         1 U4U       0.257000
     32 H2          13.3740    -6.7310     1.9140 ha         1 U4U       0.120000
     33 H3          10.3490    -6.5710     1.3530 h1         1 U4U       0.043200
     34 H4          11.7460    -6.2090     0.3630 h1         1 U4U       0.043200
     35 H6           9.5890    -5.7040    -1.3130 h1         1 U4U       0.040200
     36 H7          11.2400    -5.0680    -1.4580 h1         1 U4U       0.040200
     37 H8           9.5920    -3.7480    -2.7770 h1         1 U4U       0.058200
     38 H9          10.4280    -2.7770    -1.5640 h1         1 U4U       0.058200
     39 H10          7.6150    -4.3200    -3.4510 hc         1 U4U       0.053700
     40 H11          7.9740    -2.6320    -3.7170 hc         1 U4U       0.053700
     41 H12          5.9300    -3.2980    -4.9530 hc         1 U4U       0.043033
     42 H13          5.1470    -3.8050    -3.4510 hc         1 U4U       0.043033
     43 H14          5.5090    -2.1010    -3.7220 hc         1 U4U       0.043033
     44 H15          9.1890    -2.2400     0.5970 h1         1 U4U       0.076700
     45 H16          7.5260    -2.8500     0.7260 h1         1 U4U       0.076700
     46 H17          8.3230    -5.1600     0.7450 h1         1 U4U       0.035700
     47 H18          8.2640    -3.7510     2.8760 h1         1 U4U       0.062700
     48 H19          9.1640    -5.2680     2.9330 h1         1 U4U       0.062700
     49 H20         14.9100    -4.4290     8.8380 ha         1 U4U       0.134000
     50 H21         16.6080    -2.6700     8.3980 ha         1 U4U       0.119000
     51 H22         16.8500    -1.7150     6.1240 ha         1 U4U       0.119000
     52 H23         16.0870    -1.7720     3.9850 ho         1 U4U       0.464000
@<TRIPOS>BOND
     1     1     2 3   
     2     1    31 1   
     3     2     3 1   
     4     3     4 ar  
     5     3    22 ar  
     6     4     5 ar  
     7     4    32 1   
     8     5     6 1   
     9     5    19 ar  
    10     6     7 1   
    11     6    33 1   
    12     6    34 1   
    13     7     8 1   
    14     7    16 1   
    15     8     9 1   
    16     8    35 1   
    17     8    36 1   
    18     9    10 1   
    19     9    37 1   
    20     9    38 1   
    21    10    11 1   
    22    10    15 1   
    23    11    12 2   
    24    11    13 1   
    25    13    14 1   
    26    13    39 1   
    27    13    40 1   
    28    14    41 1   
    29    14    42 1   
    30    14    43 1   
    31    15    16 1   
    32    15    44 1   
    33    15    45 1   
    34    16    17 1   
    35    16    46 1   
    36    17    18 1   
    37    17    47 1   
    38    17    48 1   
    39    18    19 1   
    40    19    20 ar  
    41    20    21 1   
    42    20    22 ar  
    43    22    23 1   
    44    23    24 ar  
    45    23    29 ar  
    46    24    25 1   
    47    24    26 ar  
    48    26    27 ar  
    49    26    49 1   
    50    27    28 ar  
    51    27    50 1   
    52    28    29 ar  
    53    28    51 1   
    54    29    30 1   
    55    30    52 1   
@<TRIPOS>SUBSTRUCTURE
     1 U4U         1 TEMP              0 ****  ****    0 ROOT
