@<TRIPOS>MOLECULE
U4U
   52    55     1     0     0
SMALL
No Charge or Current Charge


@<TRIPOS>ATOM
      1 C23         16.1850    -6.8030     4.0090 c1         1 U4U      -0.223000
      2 C13         15.1350    -6.2180     3.8300 cg         1 U4U      -0.120000
      3 C2          13.8920    -5.5220     3.6310 ca         1 U4U       0.048000
      4 C3          13.0420    -5.9510     2.5980 ca         1 U4U      -0.083000
      5 C4          11.8100    -5.3130     2.3440 ca         1 U4U      -0.116300
      6 C7          11.0020    -5.8050     1.1400 c3         1 U4U       0.229100
      7 N1          10.3570    -4.6960     0.4130 n3         1 U4U      -0.732600
      8 C10         10.2540    -4.9020    -1.0600 c6         1 U4U       0.158800
      9 C11          9.7100    -3.6310    -1.7730 c6         1 U4U       0.104000
     10 N2           8.4280    -3.1600    -1.1660 n          1 U4U      -0.419800
     11 C20          7.1830    -3.1540    -1.8400 c          1 U4U       0.600100
     12 O3           6.1410    -2.9980    -1.2150 o          1 U4U      -0.609100
     13 C21          7.1650    -3.3040    -3.3760 c3         1 U4U      -0.150400
     14 C22          5.7970    -3.0760    -4.0610 c3         1 U4U      -0.076100
     15 C12          8.5290    -2.9980     0.3150 c6         1 U4U       0.099000
     16 C8           9.0350    -4.3060     0.9890 c6         1 U4U       0.138500
     17 C9           9.0270    -4.1940     2.5460 c3         1 U4U       0.163600
     18 O1          10.2150    -3.5470     3.0370 os         1 U4U      -0.323100
     19 C5          11.4220    -4.2190     3.1700 ca         1 U4U       0.117100
     20 C6          12.2910    -3.7810     4.1920 ca         1 U4U       0.163000
     21 F1          11.9180    -2.7370     4.9740 f          1 U4U      -0.163000
     22 C1          13.5280    -4.4190     4.4430 cp         1 U4U      -0.013000
     23 C14         14.4130    -3.9360     5.5470 cp         1 U4U      -0.063000
     24 C15         14.3890    -4.5600     6.8190 ca         1 U4U       0.181000
     25 Cl1         13.3060    -5.9130     7.1440 cl         1 U4U      -0.199000
     26 C16         15.2230    -4.1100     7.8550 ca         1 U4U      -0.144000
     27 C17         16.0940    -3.0310     7.6410 ca         1 U4U      -0.054000
     28 C18         16.1290    -2.4000     6.3870 ca         1 U4U      -0.205000
     29 C19         15.2970    -2.8460     5.3470 ca         1 U4U       0.167100
     30 O2          15.3580    -2.2130     4.1390 oh         1 U4U      -0.521100
     31 H1          17.1120    -7.3140     4.1730 ha         1 U4U       0.257000
     32 H2          13.3510    -6.7870     1.9730 ha         1 U4U       0.120000
     33 H3          10.2620    -6.5490     1.4650 h1         1 U4U       0.043200
     34 H4          11.6940    -6.3280     0.4650 h1         1 U4U       0.043200
     35 H6           9.5870    -5.7490    -1.2800 h1         1 U4U       0.040200
     36 H7          11.2390    -5.1460    -1.4840 h1         1 U4U       0.040200
     37 H8           9.6090    -3.8440    -2.8440 h1         1 U4U       0.058200
     38 H9          10.4550    -2.8280    -1.6780 h1         1 U4U       0.058200
     39 H10          7.5620    -4.2960    -3.6200 hc         1 U4U       0.053700
     40 H11          7.9350    -2.6470    -3.7960 hc         1 U4U       0.053700
     41 H12          5.8880    -3.1990    -5.1470 hc         1 U4U       0.043033
     42 H13          5.0550    -3.7960    -3.6970 hc         1 U4U       0.043033
     43 H14          5.4270    -2.0630    -3.8610 hc         1 U4U       0.043033
     44 H15          9.2300    -2.1820     0.5400 h1         1 U4U       0.076700
     45 H16          7.5580    -2.7150     0.7450 h1         1 U4U       0.076700
     46 H17          8.3000    -5.0880     0.7480 h1         1 U4U       0.035700
     47 H18          8.1340    -3.6340     2.8520 h1         1 U4U       0.062700
     48 H19          8.9380    -5.1980     2.9790 h1         1 U4U       0.062700
     49 H20         15.1920    -4.5990     8.8250 ha         1 U4U       0.134000
     50 H21         16.7400    -2.6840     8.4460 ha         1 U4U       0.119000
     51 H22         16.8080    -1.5650     6.2310 ha         1 U4U       0.119000
     52 H23         16.0250    -1.4970     4.1980 ho         1 U4U       0.464000
@<TRIPOS>BOND
     1     1     2 3   
     2     1    31 1   
     3     2     3 1   
     4     3     4 ar  
     5     3    22 ar  
     6     4     5 ar  
     7     4    32 1   
     8     5     6 1   
     9     5    19 ar  
    10     6     7 1   
    11     6    33 1   
    12     6    34 1   
    13     7     8 1   
    14     7    16 1   
    15     8     9 1   
    16     8    35 1   
    17     8    36 1   
    18     9    10 1   
    19     9    37 1   
    20     9    38 1   
    21    10    11 1   
    22    10    15 1   
    23    11    12 2   
    24    11    13 1   
    25    13    14 1   
    26    13    39 1   
    27    13    40 1   
    28    14    41 1   
    29    14    42 1   
    30    14    43 1   
    31    15    16 1   
    32    15    44 1   
    33    15    45 1   
    34    16    17 1   
    35    16    46 1   
    36    17    18 1   
    37    17    47 1   
    38    17    48 1   
    39    18    19 1   
    40    19    20 ar  
    41    20    21 1   
    42    20    22 ar  
    43    22    23 1   
    44    23    24 ar  
    45    23    29 ar  
    46    24    25 1   
    47    24    26 ar  
    48    26    27 ar  
    49    26    49 1   
    50    27    28 ar  
    51    27    50 1   
    52    28    29 ar  
    53    28    51 1   
    54    29    30 1   
    55    30    52 1   
@<TRIPOS>SUBSTRUCTURE
     1 U4U         1 TEMP              0 ****  ****    0 ROOT
