@<TRIPOS>MOLECULE
U4V
   56    59     1     0     0
SMALL
No Charge or Current Charge


@<TRIPOS>ATOM
      1 C19         -1.6070     3.6520    83.9980 ca         1 U4V      -0.350500
      2 C18         -0.2830     3.9720    83.6420 ca         1 U4V       0.044000
      3 C17          0.2250     5.2510    83.9240 ca         1 U4V      -0.224000
      4 C16         -0.5750     6.2080    84.5580 ca         1 U4V       0.392000
      5 C13         -1.7720     9.1230    84.1080 cc         1 U4V       0.174300
      6 C14         -0.7700     8.7080    85.1720 c3         1 U4V       0.211500
      7 C02         -5.1770    12.6930    76.4940 c          1 U4V       0.587200
      8 C03         -5.8360    11.8160    77.4890 cc         1 U4V      -0.267400
      9 C04         -7.3060    12.0700    77.7290 c3         1 U4V      -0.018900
     10 C05         -5.1070    10.8350    78.1280 cd         1 U4V      -0.002400
     11 N06         -3.7460    10.6700    77.8500 n          1 U4V      -0.333000
     12 C07         -2.9440     9.6210    78.5320 c5         1 U4V       0.351700
     13 C08         -2.4780    10.2230    79.8970 c5         1 U4V      -0.137400
     14 C09         -3.3980     9.5070    80.9270 c5         1 U4V       0.047300
     15 N10         -2.8840     9.4620    82.2990 na         1 U4V       0.128800
     16 N11         -3.5770    10.0470    83.3270 nd         1 U4V      -0.182800
     17 N12         -2.8950     9.8370    84.4250 nc         1 U4V      -0.349000
     18 N15         -0.0320     7.4650    84.8240 nu         1 U4V      -0.977200
     19 S20         -2.2490     2.0200    83.6520 sy         1 U4V       1.132600
     20 O21         -3.4780     1.7940    84.4080 o          1 U4V      -0.549500
     21 N22         -2.7610     2.2000    82.1130 n8         1 U4V      -1.001100
     22 O23         -1.1620     1.0440    83.5840 o          1 U4V      -0.549500
     23 C24         -2.4150     4.6140    84.6360 ca         1 U4V       0.044000
     24 C25         -1.8940     5.8880    84.9130 ca         1 U4V      -0.224000
     25 C26         -1.7320     8.8760    82.7700 cd         1 U4V      -0.196000
     26 C27         -3.5270     8.1280    80.2300 c5         1 U4V       0.154300
     27 C28         -4.6520     7.1980    80.7690 c3         1 U4V       0.162600
     28 O29         -5.9200     7.8820    80.8530 oh         1 U4V      -0.726000
     29 O30         -3.7690     8.4800    78.8520 os         1 U4V      -0.443000
     30 C31         -3.0950    11.4790    76.9030 c          1 U4V       0.616000
     31 N32         -3.8590    12.4260    76.3020 ns         1 U4V      -0.464500
     32 O33         -1.9140    11.3660    76.6230 o          1 U4V      -0.572000
     33 H1           0.3540     3.2380    83.1490 ha         1 U4V       0.133500
     34 H2           1.2470     5.4920    83.6480 ha         1 U4V       0.123500
     35 H3          -0.0620     9.5360    85.3170 h1         1 U4V       0.068700
     36 H4          -1.3030     8.5730    86.1240 h1         1 U4V       0.068700
     37 H5          -7.7130    11.3780    78.4770 hc         1 U4V       0.047033
     38 H6          -7.4760    13.0900    78.0940 hc         1 U4V       0.047033
     39 H7          -7.8840    11.9380    76.8070 hc         1 U4V       0.047033
     40 H9          -2.1010     9.3340    77.8890 h2         1 U4V       0.108700
     41 H10         -1.4220     9.9810    80.0650 hc         1 U4V       0.086200
     42 H11         -2.5610    11.3150    79.9490 hc         1 U4V       0.086200
     43 H12         -4.3820     9.9920    80.9420 h1         1 U4V       0.128700
     44 H13          0.9500     7.5730    84.5620 hn         1 U4V       0.493000
     45 H14         -3.7200     1.8690    82.1900 hn         1 U4V       0.467500
     46 H15         -2.8530     3.2090    82.0370 hn         1 U4V       0.467500
     47 H16         -3.4400     4.3820    84.9230 ha         1 U4V       0.133500
     48 H17         -2.5230     6.6190    85.4100 ha         1 U4V       0.123500
     49 H18         -1.0140     8.3470    82.1580 h4         1 U4V       0.169000
     50 H19         -2.5770     7.5780    80.2800 h1         1 U4V       0.061700
     51 H20         -4.3530     6.8360    81.7620 h1         1 U4V       0.043700
     52 H21         -4.7270     6.3230    80.1090 h1         1 U4V       0.043700
     53 H22         -6.5920     7.2140    81.1290 ho         1 U4V       0.521000
     54 H23         -3.3870    13.0060    75.6280 hn         1 U4V       0.344500
     55 H8          -5.5220    10.1450    78.8600 h4         1 U4V       0.235000
     56 O01         -5.7330    13.5870    75.8770 o          1 U4V      -0.524000
@<TRIPOS>BOND
     1     1     2 ar  
     2     1    19 1   
     3     1    23 ar  
     4     2     3 ar  
     5     2    33 1   
     6     3     4 ar  
     7     3    34 1   
     8     4    18 1   
     9     4    24 ar  
    10     5     6 1   
    11     5    17 1   
    12     5    25 2   
    13     6    18 1   
    14     6    35 1   
    15     6    36 1   
    16     7     8 1   
    17     7    31 1   
    18     7    56 2   
    19     8     9 1   
    20     8    10 2   
    21     9    37 1   
    22     9    38 1   
    23     9    39 1   
    24    10    11 1   
    25    10    55 1   
    26    11    12 1   
    27    11    30 1   
    28    12    13 1   
    29    12    29 1   
    30    12    40 1   
    31    13    14 1   
    32    13    41 1   
    33    13    42 1   
    34    14    15 1   
    35    14    26 1   
    36    14    43 1   
    37    15    16 1   
    38    15    25 1   
    39    16    17 2   
    40    18    44 1   
    41    19    20 2   
    42    19    21 1   
    43    19    22 2   
    44    21    45 1   
    45    21    46 1   
    46    23    24 ar  
    47    23    47 1   
    48    24    48 1   
    49    25    49 1   
    50    26    27 1   
    51    26    29 1   
    52    26    50 1   
    53    27    28 1   
    54    27    51 1   
    55    27    52 1   
    56    28    53 1   
    57    30    31 1   
    58    30    32 2   
    59    31    54 1   
@<TRIPOS>SUBSTRUCTURE
     1 U4V         1 TEMP              0 ****  ****    0 ROOT
