@<TRIPOS>MOLECULE
U4V
   56    59     1     0     0
SMALL
abcg2


@<TRIPOS>ATOM
      1 C19         -1.8680     3.3260    84.9750 ca         1 U4V      -0.350500
      2 C18         -0.5530     3.3500    84.5050 ca         1 U4V       0.044000
      3 C17          0.0620     4.5500    84.2440 ca         1 U4V      -0.224000
      4 C16         -0.6100     5.7730    84.4540 ca         1 U4V       0.392000
      5 C13         -1.5260     8.7260    83.5230 cc         1 U4V       0.174300
      6 C14         -0.4920     8.2460    84.4920 c3         1 U4V       0.211500
      7 C02         -5.7060    13.2310    76.9000 c          1 U4V       0.587200
      8 C03         -6.0850    11.9270    77.4030 cc         1 U4V      -0.267400
      9 C04         -7.5310    11.5500    77.4060 c3         1 U4V      -0.018900
     10 C05         -5.1150    11.1030    77.8410 cd         1 U4V      -0.002400
     11 N06         -3.7860    11.4310    77.8390 n          1 U4V      -0.333000
     12 C07         -2.7420    10.5020    78.3190 c5         1 U4V       0.351700
     13 C08         -2.3350    10.7620    79.7700 c5         1 U4V      -0.137400
     14 C09         -3.1700     9.7360    80.5240 c5         1 U4V       0.047300
     15 N10         -2.6590     9.3720    81.8240 na         1 U4V       0.128800
     16 N11         -3.4380     9.4860    82.8880 nd         1 U4V      -0.182800
     17 N12         -2.7640     9.1000    83.9130 nc         1 U4V      -0.349000
     18 N15          0.0330     6.9360    84.2020 nu         1 U4V      -0.977200
     19 S20         -2.6340     1.7880    85.3260 sy         1 U4V       1.132600
     20 O21         -3.9780     2.0500    85.8290 o          1 U4V      -0.549500
     21 N22         -2.6370     1.0790    83.8260 n8         1 U4V      -1.001100
     22 O23         -1.7580     0.9540    86.1410 o          1 U4V      -0.549500
     23 C24         -2.5480     4.5170    85.1840 ca         1 U4V       0.044000
     24 C25         -1.9320     5.7290    84.9300 ca         1 U4V      -0.224000
     25 C26         -1.4480     8.8970    82.1650 cd         1 U4V      -0.196000
     26 C27         -3.2030     8.5670    79.5350 c5         1 U4V       0.154300
     27 C28         -4.3600     7.6080    79.6850 c3         1 U4V       0.162600
     28 O29         -5.5730     8.3180    79.6800 oh         1 U4V      -0.726000
     29 O30         -3.2330     9.1970    78.2610 os         1 U4V      -0.443000
     30 C31         -3.3540    12.6600    77.4050 c          1 U4V       0.616000
     31 N32         -4.3450    13.4840    76.9440 ns         1 U4V      -0.464500
     32 O33         -2.1850    12.9930    77.4270 o          1 U4V      -0.572000
     33 H1          -0.0080     2.4300    84.3390 ha         1 U4V       0.133500
     34 H2           1.0830     4.5600    83.8790 ha         1 U4V       0.123500
     35 H3           0.3550     8.9320    84.4940 h1         1 U4V       0.068700
     36 H4          -0.9170     8.2820    85.4990 h1         1 U4V       0.068700
     37 H5          -7.6700    10.5500    77.8140 hc         1 U4V       0.047033
     38 H6          -8.1230    12.2410    78.0080 hc         1 U4V       0.047033
     39 H7          -7.9480    11.5610    76.3980 hc         1 U4V       0.047033
     40 H9          -1.8970    10.6110    77.6390 h2         1 U4V       0.108700
     41 H10         -1.2690    10.5590    79.8860 hc         1 U4V       0.086200
     42 H11         -2.5200    11.7850    80.0920 hc         1 U4V       0.086200
     43 H12         -4.1770    10.1140    80.7030 h1         1 U4V       0.128700
     44 H13          0.9830     6.8860    83.8760 hn         1 U4V       0.493000
     45 H14         -2.8200     0.0820    83.8890 hn         1 U4V       0.467500
     46 H15         -3.3010     1.5150    83.1920 hn         1 U4V       0.467500
     47 H16         -3.5670     4.5140    85.5460 ha         1 U4V       0.133500
     48 H17         -2.4920     6.6380    85.0950 ha         1 U4V       0.123500
     49 H18         -0.6540     8.7280    81.4560 h4         1 U4V       0.169000
     50 H19         -2.2800     7.9780    79.6290 h1         1 U4V       0.061700
     51 H20         -4.2080     7.0560    80.6220 h1         1 U4V       0.043700
     52 H21         -4.3090     6.8720    78.8740 h1         1 U4V       0.043700
     53 H22         -6.3000     7.6890    79.7200 ho         1 U4V       0.521000
     54 H23         -4.0370    14.3910    76.6140 hn         1 U4V       0.344500
     55 H8          -5.3560    10.1230    78.2250 h4         1 U4V       0.235000
     56 O01         -6.4780    14.0680    76.4690 o          1 U4V      -0.524000
@<TRIPOS>BOND
     1     1     2 ar  
     2     1    19 1   
     3     1    23 ar  
     4     2     3 ar  
     5     2    33 1   
     6     3     4 ar  
     7     3    34 1   
     8     4    18 1   
     9     4    24 ar  
    10     5     6 1   
    11     5    17 1   
    12     5    25 2   
    13     6    18 1   
    14     6    35 1   
    15     6    36 1   
    16     7     8 1   
    17     7    31 1   
    18     7    56 2   
    19     8     9 1   
    20     8    10 2   
    21     9    37 1   
    22     9    38 1   
    23     9    39 1   
    24    10    11 1   
    25    10    55 1   
    26    11    12 1   
    27    11    30 1   
    28    12    13 1   
    29    12    29 1   
    30    12    40 1   
    31    13    14 1   
    32    13    41 1   
    33    13    42 1   
    34    14    15 1   
    35    14    26 1   
    36    14    43 1   
    37    15    16 1   
    38    15    25 1   
    39    16    17 2   
    40    18    44 1   
    41    19    20 2   
    42    19    21 1   
    43    19    22 2   
    44    21    45 1   
    45    21    46 1   
    46    23    24 ar  
    47    23    47 1   
    48    24    48 1   
    49    25    49 1   
    50    26    27 1   
    51    26    29 1   
    52    26    50 1   
    53    27    28 1   
    54    27    51 1   
    55    27    52 1   
    56    28    53 1   
    57    30    31 1   
    58    30    32 2   
    59    31    54 1   
@<TRIPOS>SUBSTRUCTURE
     1 U4V         1 TEMP              0 ****  ****    0 ROOT
