@<TRIPOS>MOLECULE
U4W
   78    83     1     0     0
SMALL
No Charge or Current Charge


@<TRIPOS>ATOM
      1 F40         -7.4850     0.1550     3.4770 f          1 U4W      -0.173500
      2 C35         -6.6580     0.7410     2.5850 ca         1 U4W       0.202000
      3 C36         -5.7530     1.7200     3.0150 ca         1 U4W      -0.200000
      4 C37         -4.8960     2.3220     2.0840 ca         1 U4W       0.202000
      5 F39         -4.0190     3.2650     2.4920 f          1 U4W      -0.173500
      6 C38         -4.9410     1.9510     0.7310 ca         1 U4W      -0.168000
      7 C34         -6.7100     0.3640     1.2340 ca         1 U4W      -0.168000
      8 C33         -5.8520     0.9680     0.2950 ca         1 U4W      -0.020300
      9 C32         -5.9010     0.5500    -1.1680 c3         1 U4W       0.017200
     10 C26         -5.1750    -0.7700    -1.3930 ca         1 U4W      -0.128300
     11 C27         -5.9100    -1.9670    -1.5990 ca         1 U4W      -0.059000
     12 C28         -5.2420    -3.1940    -1.8010 ca         1 U4W      -0.134000
     13 C29         -3.8420    -3.1850    -1.7870 ca         1 U4W      -0.014200
     14 N30         -2.9490    -4.2250    -1.9520 na         1 U4W      -0.066400
     15 N31         -1.6260    -3.7520    -1.8570 nc         1 U4W      -0.512100
     16 C25         -3.7610    -0.8030    -1.3850 ca         1 U4W      -0.023000
     17 C24         -3.1360    -2.0430    -1.5880 ca         1 U4W      -0.262900
     18 C23         -1.7500    -2.4360    -1.6360 cd         1 U4W       0.433500
     19 N22         -0.7470    -1.5170    -1.4680 ns         1 U4W      -0.400400
     20 C21          0.6140    -1.7100    -1.4650 c          1 U4W       0.644700
     21 O41          1.1210    -2.8130    -1.6230 o          1 U4W      -0.593100
     22 C9           1.4450    -0.4560    -1.2820 ca         1 U4W      -0.301600
     23 C8           2.8060    -0.5200    -0.9100 ca         1 U4W       0.438000
     24 N7           3.4330    -1.7360    -0.6910 nu         1 U4W      -0.963200
     25 C6           4.2300    -2.0240     0.5050 c6         1 U4W       0.233500
     26 C1           3.6100    -3.2330     1.2500 c6         1 U4W      -0.093900
     27 C2           4.4650    -3.6260     2.4830 c6         1 U4W      -0.090400
     28 C3           5.9320    -3.9240     2.0810 c6         1 U4W       0.168300
     29 O42          6.7030    -4.2190     3.2470 oh         1 U4W      -0.659000
     30 C4           6.5500    -2.7180     1.3270 c6         1 U4W      -0.090400
     31 C5           5.6940    -2.3240     0.0960 c6         1 U4W      -0.093900
     32 C13          3.5590     0.6460    -0.7500 ca         1 U4W      -0.294000
     33 C12          2.9860     1.9030    -0.9430 ca         1 U4W       0.402000
     34 C11          1.6380     1.9830    -1.3140 ca         1 U4W      -0.253000
     35 C10          0.8720     0.8220    -1.4850 ca         1 U4W       0.000000
     36 N14          3.7730     3.0600    -0.7700 nh         1 U4W      -0.809400
     37 C15          3.4480     4.3360    -1.4850 c6         1 U4W       0.212800
     38 C16          4.6790     5.2970    -1.5870 c6         1 U4W       0.151300
     39 N17          5.3200     5.5640    -0.2630 n3         1 U4W      -0.709600
     40 C20          6.4560     6.5050    -0.3580 c3         1 U4W       0.150100
     41 C18          5.6940     4.2700     0.3860 c6         1 U4W       0.151300
     42 C19          4.4850     3.2890     0.5290 c6         1 U4W       0.212800
     43 H36         -5.7150     2.0090     4.0610 ha         1 U4W       0.151000
     44 H34         -7.4150    -0.4000     0.9180 ha         1 U4W       0.134000
     45 H38         -4.2660     2.4280     0.0250 ha         1 U4W       0.134000
     46 H321        -6.9450     0.4730    -1.4940 hc         1 U4W       0.057200
     47 H322        -5.4570     1.3290    -1.8010 hc         1 U4W       0.057200
     48 H27         -6.9980    -1.9460    -1.6010 ha         1 U4W       0.111000
     49 H25         -3.1820     0.1040    -1.2240 ha         1 U4W       0.109000
     50 H28         -5.7980    -4.1160    -1.9590 ha         1 U4W       0.123000
     51 H30         -3.1730    -5.2050    -2.1200 hn         1 U4W       0.381000
     52 H22         -1.0270    -0.5650    -1.3020 hn         1 U4W       0.324500
     53 H10         -0.1640     0.9420    -1.7930 ha         1 U4W       0.101000
     54 H7           2.8370    -2.5060    -1.0170 hn         1 U4W       0.521000
     55 H13          4.6080     0.5760    -0.4890 ha         1 U4W       0.116000
     56 H6           4.2260    -1.1610     1.1890 h1         1 U4W       0.055700
     57 H11C         2.5890    -2.9890     1.5720 hc         1 U4W       0.053700
     58 H12C         3.5300    -4.0940     0.5720 hc         1 U4W       0.053700
     59 H51C         5.7170    -3.1380    -0.6430 hc         1 U4W       0.053700
     60 H52C         6.1330    -1.4450    -0.3940 hc         1 U4W       0.053700
     61 H21C         4.4380    -2.8140     3.2230 hc         1 U4W       0.050450
     62 H22C         4.0260    -4.5080     2.9700 hc         1 U4W       0.050450
     63 H3           5.9350    -4.7930     1.4060 h1         1 U4W       0.029700
     64 H42          7.5990    -4.4750     2.9360 ho         1 U4W       0.442000
     65 H41C         6.6340    -1.8570     2.0050 hc         1 U4W       0.050450
     66 H42C         7.5710    -2.9610     1.0020 hc         1 U4W       0.050450
     67 H11          1.1670     2.9480    -1.4690 ha         1 U4W       0.115000
     68 H151         3.0950     4.1220    -2.5040 h1         1 U4W       0.048950
     69 H152         2.6370     4.8610    -0.9590 h1         1 U4W       0.048950
     70 H191         3.7810     3.7050     1.2640 h1         1 U4W       0.048950
     71 H192         4.8590     2.3420     0.9440 h1         1 U4W       0.048950
     72 H161         5.4110     4.8480    -2.2750 h1         1 U4W       0.040950
     73 H162         4.3470     6.2400    -2.0460 h1         1 U4W       0.040950
     74 H201         6.1340     7.4590    -0.7960 h1         1 U4W       0.032700
     75 H202         6.8710     6.7130     0.6370 h1         1 U4W       0.032700
     76 H203         7.2570     6.0910    -0.9860 h1         1 U4W       0.032700
     77 H181         6.4790     3.7690    -0.2000 h1         1 U4W       0.040950
     78 H182         6.1130     4.4540     1.3870 h1         1 U4W       0.040950
@<TRIPOS>BOND
     1     1     2 1   
     2     2     3 ar  
     3     2     7 ar  
     4     3     4 ar  
     5     3    43 1   
     6     4     5 1   
     7     4     6 ar  
     8     6     8 ar  
     9     6    45 1   
    10     7     8 ar  
    11     7    44 1   
    12     8     9 1   
    13     9    10 1   
    14     9    46 1   
    15     9    47 1   
    16    10    11 ar  
    17    10    16 ar  
    18    11    12 ar  
    19    11    48 1   
    20    12    13 ar  
    21    12    50 1   
    22    13    14 1   
    23    13    17 ar  
    24    14    15 1   
    25    14    51 1   
    26    15    18 2   
    27    16    17 ar  
    28    16    49 1   
    29    17    18 1   
    30    18    19 1   
    31    19    20 1   
    32    19    52 1   
    33    20    21 2   
    34    20    22 1   
    35    22    23 ar  
    36    22    35 ar  
    37    23    24 1   
    38    23    32 ar  
    39    24    25 1   
    40    24    54 1   
    41    25    26 1   
    42    25    31 1   
    43    25    56 1   
    44    26    27 1   
    45    26    57 1   
    46    26    58 1   
    47    27    28 1   
    48    27    61 1   
    49    27    62 1   
    50    28    29 1   
    51    28    30 1   
    52    28    63 1   
    53    29    64 1   
    54    30    31 1   
    55    30    65 1   
    56    30    66 1   
    57    31    59 1   
    58    31    60 1   
    59    32    33 ar  
    60    32    55 1   
    61    33    34 ar  
    62    33    36 1   
    63    34    35 ar  
    64    34    67 1   
    65    35    53 1   
    66    36    37 1   
    67    36    42 1   
    68    37    38 1   
    69    37    68 1   
    70    37    69 1   
    71    38    39 1   
    72    38    72 1   
    73    38    73 1   
    74    39    40 1   
    75    39    41 1   
    76    40    74 1   
    77    40    75 1   
    78    40    76 1   
    79    41    42 1   
    80    41    77 1   
    81    41    78 1   
    82    42    70 1   
    83    42    71 1   
@<TRIPOS>SUBSTRUCTURE
     1 U4W         1 TEMP              0 ****  ****    0 ROOT
