@<TRIPOS>MOLECULE
U4W
   78    83     1     0     0
SMALL
abcg2


@<TRIPOS>ATOM
      1 F40         -9.2390     0.6010     2.2610 f          1 U4W      -0.173500
      2 C35         -8.0370     0.9780     1.8050 ca         1 U4W       0.202000
      3 C36         -7.1890     1.6430     2.6680 ca         1 U4W      -0.200000
      4 C37         -5.9600     2.0180     2.1570 ca         1 U4W       0.202000
      5 F39         -5.1150     2.6780     2.9620 f          1 U4W      -0.173500
      6 C38         -5.5730     1.7520     0.8590 ca         1 U4W      -0.168000
      7 C34         -7.7020     0.6890     0.4970 ca         1 U4W      -0.168000
      8 C33         -6.4550     1.0790     0.0180 ca         1 U4W      -0.020300
      9 C32         -6.0440     0.7390    -1.3930 c3         1 U4W       0.017200
     10 C26         -5.2820    -0.5620    -1.4460 ca         1 U4W      -0.128300
     11 C27         -5.9890    -1.7840    -1.5450 ca         1 U4W      -0.059000
     12 C28         -5.3620    -3.0060    -1.5790 ca         1 U4W      -0.134000
     13 C29         -3.9640    -3.0030    -1.5070 ca         1 U4W      -0.014200
     14 N30         -3.0490    -3.9940    -1.5220 na         1 U4W      -0.066400
     15 N31         -1.7890    -3.5360    -1.4210 nc         1 U4W      -0.512100
     16 C25         -3.9060    -0.5760    -1.3730 ca         1 U4W      -0.023000
     17 C24         -3.2410    -1.8070    -1.3990 ca         1 U4W      -0.262900
     18 C23         -1.8800    -2.2340    -1.3400 cd         1 U4W       0.433500
     19 N22         -0.8160    -1.3590    -1.2120 ns         1 U4W      -0.400400
     20 C21          0.5030    -1.6700    -1.0260 c          1 U4W       0.644700
     21 O41          0.8670    -2.8360    -0.9180 o          1 U4W      -0.593100
     22 C9           1.4180    -0.5200    -0.9410 ca         1 U4W      -0.301600
     23 C8           2.6720    -0.6190    -0.2710 ca         1 U4W       0.438000
     24 N7           3.0790    -1.7870     0.2900 nu         1 U4W      -0.963200
     25 C6           4.3740    -2.0120     0.8910 c6         1 U4W       0.233500
     26 C1           4.3190    -3.2670     1.7580 c6         1 U4W      -0.093900
     27 C2           5.6600    -3.5260     2.4350 c6         1 U4W      -0.090400
     28 C3           6.7880    -3.6250     1.4200 c6         1 U4W       0.168300
     29 O42          7.9910    -3.8440     2.1280 oh         1 U4W      -0.659000
     30 C4           6.8440    -2.3700     0.5550 c6         1 U4W      -0.090400
     31 C5           5.5060    -2.1250    -0.1330 c6         1 U4W      -0.093900
     32 C13          3.4590     0.5350    -0.1570 ca         1 U4W      -0.294000
     33 C12          3.0980     1.7680    -0.7080 ca         1 U4W       0.402000
     34 C11          1.8850     1.8320    -1.4240 ca         1 U4W      -0.253000
     35 C10          1.0930     0.7110    -1.5180 ca         1 U4W       0.000000
     36 N14          3.9220     2.8630    -0.5820 nh         1 U4W      -0.809400
     37 C15          3.5520     4.1330    -1.1770 c6         1 U4W       0.212800
     38 C16          4.7790     4.9920    -1.4270 c6         1 U4W       0.151300
     39 N17          5.5470     5.1870    -0.2170 n3         1 U4W      -0.709600
     40 C20          6.6780     6.0580    -0.4370 c3         1 U4W       0.150100
     41 C18          5.9590     3.9000     0.3000 c6         1 U4W       0.151300
     42 C19          4.7560     3.0290     0.5980 c6         1 U4W       0.212800
     43 H36         -7.4730     1.8660     3.6880 ha         1 U4W       0.151000
     44 H34         -8.4040     0.1650    -0.1390 ha         1 U4W       0.134000
     45 H38         -4.6010     2.0740     0.5060 ha         1 U4W       0.134000
     46 H321        -6.9320     0.6760    -2.0240 hc         1 U4W       0.057200
     47 H322        -5.4260     1.5420    -1.7970 hc         1 U4W       0.057200
     48 H27         -7.0710    -1.7530    -1.6010 ha         1 U4W       0.111000
     49 H25         -3.3560     0.3560    -1.3090 ha         1 U4W       0.109000
     50 H28         -5.9270    -3.9250    -1.6620 ha         1 U4W       0.123000
     51 H30         -3.2080    -4.9850    -1.5890 hn         1 U4W       0.381000
     52 H22         -1.0820    -0.3930    -1.1160 hn         1 U4W       0.324500
     53 H10          0.1790     0.8080    -2.0920 ha         1 U4W       0.101000
     54 H7           2.5650    -2.6050    -0.0030 hn         1 U4W       0.521000
     55 H13          4.4080     0.4480     0.3470 ha         1 U4W       0.116000
     56 H6           4.5930    -1.1730     1.5620 h1         1 U4W       0.055700
     57 H11C         3.5360    -3.1580     2.5110 hc         1 U4W       0.053700
     58 H12C         4.0430    -4.1280     1.1380 hc         1 U4W       0.053700
     59 H51C         5.2820    -2.9520    -0.8160 hc         1 U4W       0.053700
     60 H52C         5.5580    -1.2230    -0.7460 hc         1 U4W       0.053700
     61 H21C         5.8760    -2.7100     3.1330 hc         1 U4W       0.050450
     62 H22C         5.6080    -4.4440     3.0260 hc         1 U4W       0.050450
     63 H3           6.5750    -4.4780     0.7550 h1         1 U4W       0.029700
     64 H42          8.7040    -3.9330     1.4880 ho         1 U4W       0.442000
     65 H41C         7.1060    -1.5100     1.1810 hc         1 U4W       0.050450
     66 H42C         7.6350    -2.4700    -0.1940 hc         1 U4W       0.050450
     67 H11          1.5430     2.7410    -1.8930 ha         1 U4W       0.115000
     68 H151         3.0720     3.9690    -2.1400 h1         1 U4W       0.048950
     69 H152         2.8420     4.6760    -0.5380 h1         1 U4W       0.048950
     70 H191         4.1710     3.4810     1.4110 h1         1 U4W       0.048950
     71 H192         5.1180     2.0710     0.9590 h1         1 U4W       0.048950
     72 H161         5.3860     4.5250    -2.2230 h1         1 U4W       0.040950
     73 H162         4.4440     5.9620    -1.8040 h1         1 U4W       0.040950
     74 H201         6.3390     7.0300    -0.7980 h1         1 U4W       0.032700
     75 H202         7.2140     6.2180     0.5000 h1         1 U4W       0.032700
     76 H203         7.3960     5.6580    -1.1710 h1         1 U4W       0.032700
     77 H181         6.6200     3.3690    -0.4080 h1         1 U4W       0.040950
     78 H182         6.5220     4.0420     1.2250 h1         1 U4W       0.040950
@<TRIPOS>BOND
     1     1     2 1   
     2     2     3 ar  
     3     2     7 ar  
     4     3     4 ar  
     5     3    43 1   
     6     4     5 1   
     7     4     6 ar  
     8     6     8 ar  
     9     6    45 1   
    10     7     8 ar  
    11     7    44 1   
    12     8     9 1   
    13     9    10 1   
    14     9    46 1   
    15     9    47 1   
    16    10    11 ar  
    17    10    16 ar  
    18    11    12 ar  
    19    11    48 1   
    20    12    13 ar  
    21    12    50 1   
    22    13    14 1   
    23    13    17 ar  
    24    14    15 1   
    25    14    51 1   
    26    15    18 2   
    27    16    17 ar  
    28    16    49 1   
    29    17    18 1   
    30    18    19 1   
    31    19    20 1   
    32    19    52 1   
    33    20    21 2   
    34    20    22 1   
    35    22    23 ar  
    36    22    35 ar  
    37    23    24 1   
    38    23    32 ar  
    39    24    25 1   
    40    24    54 1   
    41    25    26 1   
    42    25    31 1   
    43    25    56 1   
    44    26    27 1   
    45    26    57 1   
    46    26    58 1   
    47    27    28 1   
    48    27    61 1   
    49    27    62 1   
    50    28    29 1   
    51    28    30 1   
    52    28    63 1   
    53    29    64 1   
    54    30    31 1   
    55    30    65 1   
    56    30    66 1   
    57    31    59 1   
    58    31    60 1   
    59    32    33 ar  
    60    32    55 1   
    61    33    34 ar  
    62    33    36 1   
    63    34    35 ar  
    64    34    67 1   
    65    35    53 1   
    66    36    37 1   
    67    36    42 1   
    68    37    38 1   
    69    37    68 1   
    70    37    69 1   
    71    38    39 1   
    72    38    72 1   
    73    38    73 1   
    74    39    40 1   
    75    39    41 1   
    76    40    74 1   
    77    40    75 1   
    78    40    76 1   
    79    41    42 1   
    80    41    77 1   
    81    41    78 1   
    82    42    70 1   
    83    42    71 1   
@<TRIPOS>SUBSTRUCTURE
     1 U4W         1 TEMP              0 ****  ****    0 ROOT
