@<TRIPOS>MOLECULE
U4X
   65    68     1     0     0
SMALL
No Charge or Current Charge


@<TRIPOS>ATOM
      1 C3         -12.3020   -31.6950    95.0640 c6         1 U4X       0.175300
      2 C2         -13.5620   -32.5890    94.8930 c6         1 U4X       0.170800
      3 C26        -17.3820   -34.9760    95.4710 c3         1 U4X      -0.071400
      4 C27        -17.4510   -36.4380    95.9650 c3         1 U4X      -0.081400
      5 C28        -18.7770   -37.1310    95.6010 c3         1 U4X       0.152600
      6 N1         -14.7400   -32.0710    95.6610 n3         1 U4X      -0.727600
      7 C30        -19.9140   -39.2590    95.9000 c3         1 U4X       0.203900
      8 C25        -16.0540   -34.2770    95.8370 c3         1 U4X      -0.115400
      9 C12        -15.9950   -32.8100    95.3400 c3         1 U4X       0.179800
     10 C4         -11.9560   -31.5880    96.5710 c6         1 U4X       0.131300
     11 C5         -13.1630   -30.9990    97.3510 c6         1 U4X       0.139300
     12 C6         -14.4400   -31.8980    97.1380 c6         1 U4X       0.172500
     13 C7         -15.6500   -31.3400    97.9830 c3         1 U4X       0.156600
     14 O3         -11.1690   -32.2190    94.3460 oh         1 U4X      -0.726000
     15 O4         -10.7850   -30.7720    96.7700 oh         1 U4X      -0.673000
     16 O5         -12.8010   -30.8660    98.7480 oh         1 U4X      -0.739000
     17 O7         -16.0360   -29.9980    97.6280 oh         1 U4X      -0.656000
     18 O29        -18.7240   -38.4720    96.1210 os         1 U4X      -0.461000
     19 C42        -21.0720   -38.7900    96.8060 ca         1 U4X      -0.108300
     20 C41        -20.7610   -38.2040    98.0480 ca         1 U4X      -0.082000
     21 C43        -22.4390   -38.9490    96.4450 ca         1 U4X      -0.024000
     22 C58        -22.7960   -39.5970    95.2340 ca         1 U4X      -0.107000
     23 C59        -24.1380   -39.7480    94.8620 ca         1 U4X      -0.104000
     24 C60        -25.1490   -39.2610    95.6920 ca         1 U4X      -0.109000
     25 C61        -24.8230   -38.6310    96.9010 ca         1 U4X      -0.097000
     26 C44        -23.4710   -38.4670    97.3060 ca         1 U4X      -0.019000
     27 C45        -23.1280   -37.8450    98.5460 ca         1 U4X      -0.019000
     28 C46        -21.7640   -37.7310    98.9030 ca         1 U4X      -0.036000
     29 C55        -24.0950   -37.3370    99.4560 ca         1 U4X      -0.099000
     30 C54        -23.7070   -36.7430   100.6690 ca         1 U4X      -0.107000
     31 C53        -22.3520   -36.6430   101.0050 ca         1 U4X      -0.108000
     32 C52        -21.3820   -37.1360   100.1230 ca         1 U4X      -0.097000
     33 H1         -12.5470   -30.6880    94.6910 h1         1 U4X       0.060700
     34 H2         -13.8040   -32.6420    93.8210 h1         1 U4X       0.049200
     35 H3         -13.3120   -33.6100    95.2170 h1         1 U4X       0.049200
     36 H4         -18.2180   -34.4110    95.9020 hc         1 U4X       0.039200
     37 H5         -17.5110   -34.9580    94.3810 hc         1 U4X       0.039200
     38 H6         -16.6190   -37.0070    95.5320 hc         1 U4X       0.052200
     39 H7         -17.3250   -36.4580    97.0550 hc         1 U4X       0.052200
     40 H8         -19.6130   -36.5700    96.0390 h1         1 U4X       0.028200
     41 H9         -18.9000   -37.1420    94.5100 h1         1 U4X       0.028200
     42 H11        -20.1890   -39.1890    94.8420 h1         1 U4X       0.054700
     43 H12        -19.7090   -40.3150    96.1200 h1         1 U4X       0.054700
     44 H13        -15.9320   -34.3030    96.9260 hc         1 U4X       0.042200
     45 H14        -15.2240   -34.8470    95.4050 hc         1 U4X       0.042200
     46 H15        -16.8620   -32.2700    95.7440 h1         1 U4X       0.057200
     47 H16        -16.1380   -32.8180    94.2500 h1         1 U4X       0.057200
     48 H17        -11.7690   -32.6020    96.9550 h1         1 U4X       0.051700
     49 H18        -13.3830   -30.0070    96.9270 h1         1 U4X       0.075700
     50 H19        -14.2060   -32.8860    97.5600 h1         1 U4X       0.038700
     51 H20        -15.3750   -31.3760    99.0450 h1         1 U4X       0.027200
     52 H21        -16.5040   -32.0190    97.8730 h1         1 U4X       0.027200
     53 H22        -10.3910   -31.8120    94.7970 ho         1 U4X       0.522000
     54 H23        -10.8370   -30.5020    97.7180 ho         1 U4X       0.461000
     55 H24        -13.4480   -30.2390    99.1510 ho         1 U4X       0.511000
     56 H25        -16.8710   -29.8030    98.1070 ho         1 U4X       0.438000
     57 H26        -19.7230   -38.1050    98.3550 ha         1 U4X       0.125000
     58 H27        -22.0510   -40.0090    94.5630 ha         1 U4X       0.111000
     59 H28        -24.3920   -40.2470    93.9290 ha         1 U4X       0.114000
     60 H29        -26.1920   -39.3770    95.4040 ha         1 U4X       0.114000
     61 H30        -25.6530   -38.2850    97.5030 ha         1 U4X       0.112000
     62 H31        -25.1580   -37.3840    99.2580 ha         1 U4X       0.112000
     63 H32        -24.4640   -36.3610   101.3510 ha         1 U4X       0.113000
     64 H33        -22.0530   -36.1830   101.9450 ha         1 U4X       0.114000
     65 H34        -20.3310   -37.0530   100.3880 ha         1 U4X       0.113000
@<TRIPOS>BOND
     1     1     2 1   
     2     1    10 1   
     3     1    14 1   
     4     1    33 1   
     5     2     6 1   
     6     2    34 1   
     7     2    35 1   
     8     3     4 1   
     9     3     8 1   
    10     3    36 1   
    11     3    37 1   
    12     4     5 1   
    13     4    38 1   
    14     4    39 1   
    15     5    18 1   
    16     5    40 1   
    17     5    41 1   
    18     6     9 1   
    19     6    12 1   
    20     7    18 1   
    21     7    19 1   
    22     7    42 1   
    23     7    43 1   
    24     8     9 1   
    25     8    44 1   
    26     8    45 1   
    27     9    46 1   
    28     9    47 1   
    29    10    11 1   
    30    10    15 1   
    31    10    48 1   
    32    11    12 1   
    33    11    16 1   
    34    11    49 1   
    35    12    13 1   
    36    12    50 1   
    37    13    17 1   
    38    13    51 1   
    39    13    52 1   
    40    14    53 1   
    41    15    54 1   
    42    16    55 1   
    43    17    56 1   
    44    19    20 ar  
    45    19    21 ar  
    46    20    28 ar  
    47    20    57 1   
    48    21    22 ar  
    49    21    26 ar  
    50    22    23 ar  
    51    22    58 1   
    52    23    24 ar  
    53    23    59 1   
    54    24    25 ar  
    55    24    60 1   
    56    25    26 ar  
    57    25    61 1   
    58    26    27 ar  
    59    27    28 ar  
    60    27    29 ar  
    61    28    32 ar  
    62    29    30 ar  
    63    29    62 1   
    64    30    31 ar  
    65    30    63 1   
    66    31    32 ar  
    67    31    64 1   
    68    32    65 1   
@<TRIPOS>SUBSTRUCTURE
     1 U4X         1 TEMP              0 ****  ****    0 ROOT
