@<TRIPOS>MOLECULE
U4X
   65    68     1     0     0
SMALL
abcg2


@<TRIPOS>ATOM
      1 C3         -12.1020   -31.8930    95.4810 c6         1 U4X       0.175300
      2 C2         -13.2580   -32.8580    95.2800 c6         1 U4X       0.170800
      3 C26        -17.2320   -34.9600    95.2430 c3         1 U4X      -0.071400
      4 C27        -17.4710   -36.3900    95.7230 c3         1 U4X      -0.081400
      5 C28        -18.8170   -36.9220    95.2740 c3         1 U4X       0.152600
      6 N1         -14.5110   -32.2420    95.6950 n3         1 U4X      -0.727600
      7 C30        -20.2390   -38.8140    95.4790 c3         1 U4X       0.203900
      8 C25        -15.9230   -34.3670    95.7570 c3         1 U4X      -0.115400
      9 C12        -15.6850   -32.9610    95.1970 c3         1 U4X       0.179800
     10 C4         -12.0400   -31.4710    96.9350 c6         1 U4X       0.131300
     11 C5         -13.3760   -30.9180    97.3960 c6         1 U4X       0.139300
     12 C6         -14.5120   -31.9210    97.1260 c6         1 U4X       0.172500
     13 C7         -15.8420   -31.3770    97.6220 c3         1 U4X       0.156600
     14 O3         -10.8990   -32.5480    95.0800 oh         1 U4X      -0.726000
     15 O4         -10.9960   -30.5080    97.0720 oh         1 U4X      -0.673000
     16 O5         -13.2310   -30.6410    98.7930 oh         1 U4X      -0.739000
     17 O7         -16.1830   -30.1830    96.9130 oh         1 U4X      -0.656000
     18 O29        -18.9450   -38.2830    95.6900 os         1 U4X      -0.461000
     19 C42        -21.2170   -38.5000    96.5930 ca         1 U4X      -0.108300
     20 C41        -20.7970   -37.9080    97.7380 ca         1 U4X      -0.082000
     21 C43        -22.6070   -38.8600    96.4420 ca         1 U4X      -0.024000
     22 C58        -23.0760   -39.4970    95.2720 ca         1 U4X      -0.107000
     23 C59        -24.4010   -39.8420    95.1270 ca         1 U4X      -0.104000
     24 C60        -25.3110   -39.5610    96.1540 ca         1 U4X      -0.109000
     25 C61        -24.8790   -38.9450    97.3080 ca         1 U4X      -0.097000
     26 C44        -23.5300   -38.5800    97.4900 ca         1 U4X      -0.019000
     27 C45        -23.0620   -37.9360    98.7040 ca         1 U4X      -0.019000
     28 C46        -21.6870   -37.6060    98.8130 ca         1 U4X      -0.036000
     29 C55        -23.9090   -37.6210    99.7870 ca         1 U4X      -0.099000
     30 C54        -23.4210   -37.0110   100.9230 ca         1 U4X      -0.107000
     31 C53        -22.0590   -36.6860   101.0260 ca         1 U4X      -0.108000
     32 C52        -21.2100   -36.9820    99.9840 ca         1 U4X      -0.097000
     33 H1         -12.2650   -31.0020    94.8640 h1         1 U4X       0.060700
     34 H2         -13.3270   -33.1170    94.2230 h1         1 U4X       0.049200
     35 H3         -13.0350   -33.7850    95.8340 h1         1 U4X       0.049200
     36 H4         -18.0630   -34.3240    95.5660 hc         1 U4X       0.039200
     37 H5         -17.2350   -34.9400    94.1480 hc         1 U4X       0.039200
     38 H6         -16.6820   -37.0460    95.3430 hc         1 U4X       0.052200
     39 H7         -17.4210   -36.4290    96.8160 hc         1 U4X       0.052200
     40 H8         -19.6240   -36.3190    95.7050 h1         1 U4X       0.028200
     41 H9         -18.9100   -36.8720    94.1810 h1         1 U4X       0.028200
     42 H11        -20.6340   -38.4570    94.5210 h1         1 U4X       0.054700
     43 H12        -20.1220   -39.8980    95.3920 h1         1 U4X       0.054700
     44 H13        -15.9480   -34.3370    96.8510 hc         1 U4X       0.042200
     45 H14        -15.0910   -35.0230    95.4830 hc         1 U4X       0.042200
     46 H15        -16.5670   -32.3450    95.3790 h1         1 U4X       0.057200
     47 H16        -15.5770   -33.0280    94.1110 h1         1 U4X       0.057200
     48 H17        -11.8060   -32.3570    97.5410 h1         1 U4X       0.051700
     49 H18        -13.5870   -29.9930    96.8550 h1         1 U4X       0.075700
     50 H19        -14.3090   -32.8160    97.7400 h1         1 U4X       0.038700
     51 H20        -15.7430   -31.1730    98.6920 h1         1 U4X       0.027200
     52 H21        -16.6260   -32.1290    97.5060 h1         1 U4X       0.027200
     53 H22        -10.1610   -31.9800    95.3360 ho         1 U4X       0.522000
     54 H23        -10.9940   -30.2170    97.9940 ho         1 U4X       0.461000
     55 H24        -13.8050   -29.9020    99.0270 ho         1 U4X       0.511000
     56 H25        -16.9930   -29.8290    97.2990 ho         1 U4X       0.438000
     57 H26        -19.7530   -37.6480    97.8540 ha         1 U4X       0.125000
     58 H27        -22.3860   -39.7220    94.4720 ha         1 U4X       0.111000
     59 H28        -24.7380   -40.3300    94.2200 ha         1 U4X       0.114000
     60 H29        -26.3550   -39.8280    96.0440 ha         1 U4X       0.114000
     61 H30        -25.6000   -38.7420    98.0880 ha         1 U4X       0.112000
     62 H31        -24.9620   -37.8580    99.7390 ha         1 U4X       0.112000
     63 H32        -24.0940   -36.7810   101.7400 ha         1 U4X       0.113000
     64 H33        -21.6820   -36.2060   101.9200 ha         1 U4X       0.114000
     65 H34        -20.1560   -36.7370   100.0480 ha         1 U4X       0.113000
@<TRIPOS>BOND
     1     1     2 1   
     2     1    10 1   
     3     1    14 1   
     4     1    33 1   
     5     2     6 1   
     6     2    34 1   
     7     2    35 1   
     8     3     4 1   
     9     3     8 1   
    10     3    36 1   
    11     3    37 1   
    12     4     5 1   
    13     4    38 1   
    14     4    39 1   
    15     5    18 1   
    16     5    40 1   
    17     5    41 1   
    18     6     9 1   
    19     6    12 1   
    20     7    18 1   
    21     7    19 1   
    22     7    42 1   
    23     7    43 1   
    24     8     9 1   
    25     8    44 1   
    26     8    45 1   
    27     9    46 1   
    28     9    47 1   
    29    10    11 1   
    30    10    15 1   
    31    10    48 1   
    32    11    12 1   
    33    11    16 1   
    34    11    49 1   
    35    12    13 1   
    36    12    50 1   
    37    13    17 1   
    38    13    51 1   
    39    13    52 1   
    40    14    53 1   
    41    15    54 1   
    42    16    55 1   
    43    17    56 1   
    44    19    20 ar  
    45    19    21 ar  
    46    20    28 ar  
    47    20    57 1   
    48    21    22 ar  
    49    21    26 ar  
    50    22    23 ar  
    51    22    58 1   
    52    23    24 ar  
    53    23    59 1   
    54    24    25 ar  
    55    24    60 1   
    56    25    26 ar  
    57    25    61 1   
    58    26    27 ar  
    59    27    28 ar  
    60    27    29 ar  
    61    28    32 ar  
    62    29    30 ar  
    63    29    62 1   
    64    30    31 ar  
    65    30    63 1   
    66    31    32 ar  
    67    31    64 1   
    68    32    65 1   
@<TRIPOS>SUBSTRUCTURE
     1 U4X         1 TEMP              0 ****  ****    0 ROOT
