@<TRIPOS>MOLECULE
U4Y
   64    67     1     0     0
SMALL
No Charge or Current Charge


@<TRIPOS>ATOM
      1 C6          40.3360   112.3380   -11.1560 ca         1 U4Y       0.442900
      2 C2          42.3070   111.4290   -10.4330 ca         1 U4Y       0.161900
      3 O2          44.8910   118.6740   -16.2030 o          1 U4Y      -0.633100
      4 N3          42.8960   111.4440   -11.6530 nb         1 U4Y      -0.214000
      5 C4          42.1460   111.9380   -12.6590 ca         1 U4Y       0.119500
      6 C5          40.8660   112.3900   -12.4620 ca         1 U4Y      -0.092600
      7 C17         46.6960   113.5490   -15.1520 c3         1 U4Y       0.043600
      8 C16         45.8520   112.2500   -15.0730 c5         1 U4Y       0.135300
      9 O4          44.7400   112.4340   -14.1610 os         1 U4Y      -0.446000
     10 C1          43.6150   111.7260   -14.7070 c5         1 U4Y       0.272300
     11 C8          41.2370   112.6490   -14.5690 cc         1 U4Y       0.430700
     12 C7          44.6390   121.4230   -15.2630 c2         1 U4Y      -0.174200
     13 C15         43.7220   112.0840   -16.2200 c5         1 U4Y       0.138300
     14 C3          45.2300   111.7680   -16.4410 c5         1 U4Y       0.136300
     15 O3          45.4030   110.3500   -16.6550 oh         1 U4Y      -0.695000
     16 C19         43.8460   120.3840   -14.9050 ce         1 U4Y      -0.269200
     17 N           43.0160   118.1290   -15.0160 ns         1 U4Y      -0.461900
     18 CA          42.9060   116.6930   -15.3820 c3         1 U4Y      -0.051300
     19 C           41.4160   116.2960   -15.6140 c          1 U4Y       0.723000
     20 OXT         40.5490   116.8590   -14.9570 o          1 U4Y      -0.728000
     21 O           41.1680   115.5000   -16.5080 o          1 U4Y      -0.728000
     22 CB          43.5550   115.7730   -14.3150 c3         1 U4Y      -0.064400
     23 CG          45.0970   115.7700   -14.2980 c3         1 U4Y       0.083600
     24 O5          42.9030   111.2750   -17.0790 oh         1 U4Y      -0.688000
     25 N9          42.3920   112.1010   -13.9930 na         1 U4Y      -0.284300
     26 N7          40.2720   112.8380   -13.6460 nd         1 U4Y      -0.552100
     27 N1          41.0560   111.8530   -10.1320 nb         1 U4Y      -0.317000
     28 N6          39.0770   112.7540   -10.8540 nv         1 U4Y      -1.074900
     29 C9          44.4670   122.8340   -14.7260 c6         1 U4Y       0.020900
     30 C10         43.7030   123.6970   -15.7200 c2         1 U4Y      -0.176700
     31 C11         44.0380   124.9690   -16.0000 c2         1 U4Y      -0.245200
     32 C12         45.2150   125.6810   -15.3580 c6         1 U4Y       0.245700
     33 C13         46.1430   124.7160   -14.6450 c2         1 U4Y      -0.245200
     34 C14         45.8130   123.4440   -14.3620 c2         1 U4Y      -0.176700
     35 O15         45.9540   126.3540   -16.3690 oh         1 U4Y      -0.651000
     36 H1          42.9000   111.0340    -9.6110 h5         1 U4Y       0.032100
     37 H2          47.5620   113.3510   -15.7970 h1         1 U4Y       0.065700
     38 H3          47.0820   113.7930   -14.1540 h1         1 U4Y       0.065700
     39 H4          46.4960   111.4640   -14.6580 h1         1 U4Y       0.040700
     40 H5          43.7450   110.6460   -14.5560 h2         1 U4Y       0.089700
     41 H6          41.1560   112.8700   -15.6290 h5         1 U4Y       0.136800
     42 H7          45.4520   121.2850   -15.9800 ha         1 U4Y       0.201000
     43 H8          43.5210   113.1540   -16.3760 h1         1 U4Y       0.095700
     44 H9          45.6320   112.3390   -17.2910 h1         1 U4Y       0.076700
     45 H10         46.3620   110.1890   -16.8170 ho         1 U4Y       0.492000
     46 H11         43.0290   120.5360   -14.2020 ha         1 U4Y       0.171000
     47 H12         42.2900   118.5180   -14.4250 hn         1 U4Y       0.326500
     48 H13         43.4120   116.5360   -16.3430 h1         1 U4Y       0.077700
     49 H15         43.1850   116.0560   -13.3230 hc         1 U4Y       0.050200
     50 H16         43.2200   114.7450   -14.4840 hc         1 U4Y       0.050200
     51 H17         45.4430   115.1930   -13.4310 h1         1 U4Y       0.056200
     52 H18         45.4740   116.7950   -14.1920 h1         1 U4Y       0.056200
     53 H19         43.4840   110.4970   -17.2770 ho         1 U4Y       0.517000
     54 H20         38.6600   112.4230    -9.9880 hn         1 U4Y       0.502500
     55 H21         38.4440   112.9160   -11.6340 hn         1 U4Y       0.502500
     56 H22         43.8710   122.7780   -13.8040 hc         1 U4Y       0.066700
     57 H23         42.8420   123.2290   -16.2030 ha         1 U4Y       0.181000
     58 H24         43.4490   125.5490   -16.7120 ha         1 U4Y       0.171500
     59 H25         47.1170   125.1150   -14.3590 ha         1 U4Y       0.171500
     60 H26         46.5160   122.7900   -13.8400 ha         1 U4Y       0.181000
     61 H27         44.8330   126.4080   -14.6260 h1         1 U4Y       0.028700
     62 H28         45.3350   126.9960   -16.7760 ho         1 U4Y       0.433000
     63 SD          45.7930   115.0180   -15.8460 ss         1 U4Y      -0.415000
     64 C18         43.9940   119.0000   -15.4390 c          1 U4Y       0.586300
@<TRIPOS>BOND
     1     1     6 ar  
     2     1    27 ar  
     3     1    28 1   
     4     2     4 ar  
     5     2    27 ar  
     6     2    36 1   
     7     3    64 2   
     8     4     5 ar  
     9     5     6 ar  
    10     5    25 1   
    11     6    26 1   
    12     7     8 1   
    13     7    37 1   
    14     7    38 1   
    15     7    63 1   
    16     8     9 1   
    17     8    14 1   
    18     8    39 1   
    19     9    10 1   
    20    10    13 1   
    21    10    25 1   
    22    10    40 1   
    23    11    25 1   
    24    11    26 2   
    25    11    41 1   
    26    12    16 2   
    27    12    29 1   
    28    12    42 1   
    29    13    14 1   
    30    13    24 1   
    31    13    43 1   
    32    14    15 1   
    33    14    44 1   
    34    15    45 1   
    35    16    46 1   
    36    16    64 1   
    37    17    18 1   
    38    17    47 1   
    39    17    64 1   
    40    18    19 1   
    41    18    22 1   
    42    18    48 1   
    43    19    20 1   
    44    19    21 1   
    45    22    23 1   
    46    22    49 1   
    47    22    50 1   
    48    23    51 1   
    49    23    52 1   
    50    23    63 1   
    51    24    53 1   
    52    28    54 1   
    53    28    55 1   
    54    29    30 1   
    55    29    34 1   
    56    29    56 1   
    57    30    31 2   
    58    30    57 1   
    59    31    32 1   
    60    31    58 1   
    61    32    33 1   
    62    32    35 1   
    63    32    61 1   
    64    33    34 2   
    65    33    59 1   
    66    34    60 1   
    67    35    62 1   
@<TRIPOS>SUBSTRUCTURE
     1 U4Y         1 TEMP              0 ****  ****    0 ROOT
