@<TRIPOS>MOLECULE
U4Y
   64    67     1     0     0
SMALL
bcc


@<TRIPOS>ATOM
      1 C6          40.2790   110.8800   -11.4170 ca         1 U4Y       0.771200
      2 C2          42.1500   109.5410   -11.4090 ca         1 U4Y       0.687900
      3 O2          44.7110   118.8030   -15.9800 o          1 U4Y      -0.633100
      4 N3          42.8090   110.1440   -12.3850 nb         1 U4Y      -0.740000
      5 C4          42.1240   111.1730   -12.8780 ca         1 U4Y       0.447800
      6 C5          40.8770   111.6050   -12.4640 ca         1 U4Y      -0.223200
      7 C17         46.5720   114.0810   -14.7320 c3         1 U4Y      -0.004300
      8 C16         45.7830   112.8040   -14.9160 c5         1 U4Y       0.112100
      9 O4          44.6940   112.7410   -14.0020 os         1 U4Y      -0.399600
     10 C1          43.7120   111.9480   -14.6180 c5         1 U4Y       0.219800
     11 C8          41.4430   112.9100   -14.0280 cc         1 U4Y       0.430700
     12 C7          44.4590   121.5760   -15.3450 c2         1 U4Y      -0.124200
     13 C15         43.6900   112.4860   -16.0520 c5         1 U4Y       0.115100
     14 C3          45.1930   112.5680   -16.3320 c5         1 U4Y       0.113100
     15 O3          45.6110   111.3480   -16.8890 oh         1 U4Y      -0.572800
     16 C19         43.7220   120.6170   -14.7940 ce         1 U4Y      -0.219200
     17 N           42.9680   118.3800   -14.5930 ns         1 U4Y      -0.528900
     18 CA          42.7820   116.9800   -14.8950 c3         1 U4Y      -0.051300
     19 C           41.2740   116.6610   -15.0550 c          1 U4Y       0.933600
     20 OXT         40.4650   117.4840   -14.5950 o          1 U4Y      -0.833300
     21 O           41.0160   115.5810   -15.6250 o          1 U4Y      -0.833300
     22 CB          43.3980   116.0900   -13.8100 c3         1 U4Y      -0.064400
     23 CG          44.9110   116.1750   -13.7160 c3         1 U4Y       0.035700
     24 O5          43.0170   111.6870   -16.9710 oh         1 U4Y      -0.565800
     25 N9          42.4810   112.0210   -13.8910 na         1 U4Y      -0.255000
     26 N7          40.4690   112.6910   -13.1960 nd         1 U4Y      -0.552100
     27 N1          40.9550   109.8430   -10.9080 nb         1 U4Y      -0.843000
     28 N6          39.0800   111.1860   -10.9190 nv         1 U4Y      -0.964500
     29 C9          44.3410   123.0350   -15.0010 c6         1 U4Y       0.020900
     30 C10         43.8350   123.7900   -16.1950 c2         1 U4Y      -0.126700
     31 C11         44.4830   124.8050   -16.7550 c2         1 U4Y      -0.195200
     32 C12         45.7970   125.3350   -16.2660 c6         1 U4Y       0.222500
     33 C13         46.3120   124.5660   -15.0910 c2         1 U4Y      -0.195200
     34 C14         45.6640   123.5560   -14.5230 c2         1 U4Y      -0.126700
     35 O15         46.7880   125.2800   -17.2830 oh         1 U4Y      -0.588800
     36 H1          42.6440   108.6890   -10.9550 h5         1 U4Y       0.032100
     37 H2          47.4680   114.0060   -15.3520 h1         1 U4Y       0.065700
     38 H3          46.9180   114.1710   -13.7010 h1         1 U4Y       0.065700
     39 H4          46.4720   111.9740   -14.7040 h1         1 U4Y       0.040700
     40 H5          44.0060   110.8900   -14.6270 h2         1 U4Y       0.089700
     41 H6          41.4510   113.7140   -14.7550 h5         1 U4Y       0.136800
     42 H7          45.1950   121.3240   -16.1030 ha         1 U4Y       0.151000
     43 H8          43.3070   113.5150   -16.0350 h1         1 U4Y       0.095700
     44 H9          45.4220   113.4060   -17.0010 h1         1 U4Y       0.076700
     45 H10         46.5550   111.4060   -17.0660 ho         1 U4Y       0.393000
     46 H11         42.9820   120.8690   -14.0400 ha         1 U4Y       0.121000
     47 H12         42.2240   118.7930   -14.0500 hn         1 U4Y       0.326500
     48 H13         43.2730   116.7620   -15.8460 h1         1 U4Y       0.077700
     49 H15         42.9720   116.3680   -12.8400 hc         1 U4Y       0.050200
     50 H16         43.1190   115.0530   -13.9900 hc         1 U4Y       0.050200
     51 H17         45.2770   115.5680   -12.8880 h1         1 U4Y       0.056200
     52 H18         45.2290   117.2000   -13.5210 h1         1 U4Y       0.056200
     53 H19         42.0820   111.9090   -16.9450 ho         1 U4Y       0.418000
     54 H20         38.6860   110.6390   -10.1730 hn         1 U4Y       0.447300
     55 H21         38.5460   111.9550   -11.2830 hn         1 U4Y       0.447300
     56 H22         43.6090   123.1310   -14.1880 hc         1 U4Y       0.066700
     57 H23         42.8840   123.4640   -16.6020 ha         1 U4Y       0.131000
     58 H24         44.0500   125.3080   -17.6140 ha         1 U4Y       0.121500
     59 H25         47.2660   124.8870   -14.6850 ha         1 U4Y       0.121500
     60 H26         46.0930   123.0560   -13.6620 ha         1 U4Y       0.131000
     61 H27         45.6550   126.3810   -15.9540 h1         1 U4Y       0.028700
     62 H28         46.5910   125.9650   -17.9310 ho         1 U4Y       0.394000
     63 SD          45.7660   115.6280   -15.2320 ss         1 U4Y      -0.319200
     64 C18         43.8590   119.1890   -15.1870 c          1 U4Y       0.653300
@<TRIPOS>BOND
     1     1     6 ar  
     2     1    27 ar  
     3     1    28 1   
     4     2     4 ar  
     5     2    27 ar  
     6     2    36 1   
     7     3    64 2   
     8     4     5 ar  
     9     5     6 ar  
    10     5    25 1   
    11     6    26 1   
    12     7     8 1   
    13     7    37 1   
    14     7    38 1   
    15     7    63 1   
    16     8     9 1   
    17     8    14 1   
    18     8    39 1   
    19     9    10 1   
    20    10    13 1   
    21    10    25 1   
    22    10    40 1   
    23    11    25 1   
    24    11    26 2   
    25    11    41 1   
    26    12    16 2   
    27    12    29 1   
    28    12    42 1   
    29    13    14 1   
    30    13    24 1   
    31    13    43 1   
    32    14    15 1   
    33    14    44 1   
    34    15    45 1   
    35    16    46 1   
    36    16    64 1   
    37    17    18 1   
    38    17    47 1   
    39    17    64 1   
    40    18    19 1   
    41    18    22 1   
    42    18    48 1   
    43    19    20 1   
    44    19    21 1   
    45    22    23 1   
    46    22    49 1   
    47    22    50 1   
    48    23    51 1   
    49    23    52 1   
    50    23    63 1   
    51    24    53 1   
    52    28    54 1   
    53    28    55 1   
    54    29    30 1   
    55    29    34 1   
    56    29    56 1   
    57    30    31 2   
    58    30    57 1   
    59    31    32 1   
    60    31    58 1   
    61    32    33 1   
    62    32    35 1   
    63    32    61 1   
    64    33    34 2   
    65    33    59 1   
    66    34    60 1   
    67    35    62 1   
@<TRIPOS>SUBSTRUCTURE
     1 U4Y         1 TEMP              0 ****  ****    0 ROOT
