@<TRIPOS>MOLECULE
U50
   63    66     1     0     0
SMALL
abcg2


@<TRIPOS>ATOM
      1 C23         24.3520    43.3770   -35.9610 c3         1 U50      -0.076100
      2 C22         25.4500    43.5770   -34.9280 c3         1 U50      -0.149400
      3 C21         24.9290    43.9650   -33.5550 c          1 U50       0.611100
      4 O2          23.7300    44.1070   -33.2950 o          1 U50      -0.601100
      5 N7          25.8730    44.1440   -32.6220 nj         1 U50      -0.439800
      6 C20         25.7670    44.5650   -31.2260 cy         1 U50       0.088500
      7 C19         27.3380    44.1150   -32.6450 cy         1 U50       0.088500
      8 C18         27.3190    44.4410   -31.1300 cy         1 U50       0.074700
      9 N6          28.0510    45.6160   -30.7480 ns         1 U50      -0.484900
     10 C17         28.5370    45.7980   -29.4970 c          1 U50       0.652700
     11 O1          28.5100    44.9130   -28.6390 o          1 U50      -0.613100
     12 C14         29.0990    47.1290   -29.2100 cc         1 U50      -0.268600
     13 N4          29.9160    47.3800   -28.1100 na         1 U50      -0.131500
     14 C16         30.4900    46.3970   -27.1920 c3         1 U50       0.059900
     15 C15         28.8870    48.3840   -29.7510 cd         1 U50       0.368000
     16 CL2         27.9200    48.8080   -31.1160 cl         1 U50      -0.133000
     17 N5          29.5130    49.3500   -29.0440 nd         1 U50      -0.624000
     18 C13         30.1310    48.7160   -28.0550 cc         1 U50       0.406800
     19 C12         30.9460    49.3690   -26.9730 c3         1 U50       0.196500
     20 N3          30.7740    50.8060   -26.9220 nu         1 U50      -0.838400
     21 C7          29.8220    51.3800   -26.1050 cc         1 U50       0.581800
     22 C6          28.5260    50.8750   -25.7280 ca         1 U50      -0.247900
     23 C5          27.7730    49.7190   -25.9670 ca         1 U50      -0.021000
     24 C4          26.4940    49.5480   -25.4530 ca         1 U50      -0.100300
     25 C8          25.7100    48.2610   -25.7760 c3         1 U50       0.010300
     26 C10         24.4140    48.5920   -26.5440 c3         1 U50      -0.086767
     27 C11         25.3990    47.4730   -24.4870 c3         1 U50      -0.086767
     28 C9          26.5200    47.3190   -26.6810 c3         1 U50      -0.086767
     29 C3          25.9970    50.6200   -24.6530 ca         1 U50       0.186000
     30 CL1         24.4020    50.5700   -23.9000 cl         1 U50      -0.220000
     31 C2          26.6960    51.7810   -24.3910 ca         1 U50      -0.148000
     32 C1          27.9710    51.9070   -24.9430 ca         1 U50      -0.000200
     33 N2          28.8810    52.9060   -24.9010 na         1 U50      -0.076400
     34 N1          30.0200    52.5840   -25.5940 nd         1 U50      -0.585100
     35 H1          24.7880    43.1060   -36.9240 hc         1 U50       0.043367
     36 H2          23.6670    42.5840   -35.6610 hc         1 U50       0.043367
     37 H3          23.7680    44.2890   -36.0970 hc         1 U50       0.043367
     38 H4          26.0470    42.6660   -34.8160 hc         1 U50       0.053700
     39 H5          26.1510    44.3510   -35.2530 hc         1 U50       0.053700
     40 H6          25.3960    45.5850   -31.1070 h1         1 U50       0.062950
     41 H7          25.1960    43.8840   -30.5940 h1         1 U50       0.062950
     42 H8          27.7700    43.1510   -32.9160 h1         1 U50       0.062950
     43 H9          27.7780    44.9010   -33.2650 h1         1 U50       0.062950
     44 H10         27.6370    43.6150   -30.5040 h1         1 U50       0.101700
     45 H11         28.0550    46.3950   -31.3900 hn         1 U50       0.328500
     46 H12         31.3810    46.8220   -26.7400 h1         1 U50       0.066367
     47 H13         29.7700    46.1370   -26.4180 h1         1 U50       0.066367
     48 H14         30.7590    45.5030   -27.7430 h1         1 U50       0.066367
     49 H15         30.6980    48.9030   -26.0140 h1         1 U50       0.055200
     50 H16         32.0040    49.1620   -27.1530 h1         1 U50       0.055200
     51 H17         31.6390    51.3250   -26.9380 hn         1 U50       0.486000
     52 H18         28.1910    48.9380   -26.5750 ha         1 U50       0.120000
     53 H19         23.7300    49.2090   -25.9680 hc         1 U50       0.038033
     54 H20         24.6500    49.1150   -27.4730 hc         1 U50       0.038033
     55 H21         23.8980    47.6640   -26.8000 hc         1 U50       0.038033
     56 H22         24.7680    48.0290   -23.7980 hc         1 U50       0.038033
     57 H23         24.8830    46.5450   -24.7440 hc         1 U50       0.038033
     58 H24         26.3260    47.2140   -23.9720 hc         1 U50       0.038033
     59 H25         27.4500    46.9980   -26.2110 hc         1 U50       0.038033
     60 H26         25.9240    46.4260   -26.8780 hc         1 U50       0.038033
     61 H27         26.7560    47.7760   -27.6420 hc         1 U50       0.038033
     62 H28         26.2640    52.5610   -23.7810 ha         1 U50       0.135000
     63 H29         28.8270    53.7820   -24.4100 hn         1 U50       0.380000
@<TRIPOS>BOND
     1     1     2 1   
     2     1    35 1   
     3     1    36 1   
     4     1    37 1   
     5     2     3 1   
     6     2    38 1   
     7     2    39 1   
     8     3     4 2   
     9     3     5 1   
    10     5     6 1   
    11     5     7 1   
    12     6     8 1   
    13     6    40 1   
    14     6    41 1   
    15     7     8 1   
    16     7    42 1   
    17     7    43 1   
    18     8     9 1   
    19     8    44 1   
    20     9    10 1   
    21     9    45 1   
    22    10    11 2   
    23    10    12 1   
    24    12    13 1   
    25    12    15 2   
    26    13    14 1   
    27    13    18 1   
    28    14    46 1   
    29    14    47 1   
    30    14    48 1   
    31    15    16 1   
    32    15    17 1   
    33    17    18 2   
    34    18    19 1   
    35    19    20 1   
    36    19    49 1   
    37    19    50 1   
    38    20    21 1   
    39    20    51 1   
    40    21    22 1   
    41    21    34 2   
    42    22    23 ar  
    43    22    32 ar  
    44    23    24 ar  
    45    23    52 1   
    46    24    25 1   
    47    24    29 ar  
    48    25    26 1   
    49    25    27 1   
    50    25    28 1   
    51    26    53 1   
    52    26    54 1   
    53    26    55 1   
    54    27    56 1   
    55    27    57 1   
    56    27    58 1   
    57    28    59 1   
    58    28    60 1   
    59    28    61 1   
    60    29    30 1   
    61    29    31 ar  
    62    31    32 ar  
    63    31    62 1   
    64    32    33 1   
    65    33    34 1   
    66    33    63 1   
@<TRIPOS>SUBSTRUCTURE
     1 U50         1 TEMP              0 ****  ****    0 ROOT
