@<TRIPOS>MOLECULE
U50
   63    66     1     0     0
SMALL
No Charge or Current Charge


@<TRIPOS>ATOM
      1 C23         23.2550    43.7600   -32.1570 c3         1 U50      -0.076100
      2 C22         23.9260    44.6360   -33.2380 c3         1 U50      -0.149400
      3 C21         25.0430    45.5020   -32.6400 c          1 U50       0.611100
      4 O2          24.7010    46.5680   -32.1330 o          1 U50      -0.601100
      5 N7          26.3220    44.8700   -32.7840 nj         1 U50      -0.439800
      6 C20         26.7510    44.8230   -31.3460 cy         1 U50       0.088500
      7 C19         27.2370    46.0380   -33.0260 cy         1 U50       0.088500
      8 C18         28.0780    45.5070   -31.8170 cy         1 U50       0.074700
      9 N6          28.7530    46.4400   -30.9480 ns         1 U50      -0.484900
     10 C17         29.2910    46.1030   -29.7300 c          1 U50       0.652700
     11 O1          29.2710    44.9450   -29.3400 o          1 U50      -0.613100
     12 C14         29.8550    47.2160   -28.9190 cc         1 U50      -0.268600
     13 N4          30.3920    47.1640   -27.6370 na         1 U50      -0.131500
     14 C16         30.6240    45.9460   -26.8320 c3         1 U50       0.059900
     15 C15         29.9460    48.5500   -29.2690 cd         1 U50       0.368000
     16 Cl2         29.4930    49.3330   -30.7550 cl         1 U50      -0.133000
     17 N5          30.4470    49.3060   -28.2390 nd         1 U50      -0.624000
     18 C13         30.6480    48.4650   -27.2360 cc         1 U50       0.406800
     19 C12         31.0330    48.8580   -25.8050 c3         1 U50       0.196500
     20 N3          30.6600    50.2360   -25.3770 nu         1 U50      -0.838400
     21 C7          29.5120    50.9130   -25.6570 cc         1 U50       0.581800
     22 C6          28.2170    50.4020   -26.0540 ca         1 U50      -0.247900
     23 C5          27.6750    49.1150   -26.1870 ca         1 U50      -0.021000
     24 C4          26.3350    48.9590   -26.6650 ca         1 U50      -0.100300
     25 C8          25.7370    47.5210   -26.8750 c3         1 U50       0.010300
     26 C10         25.3840    47.2910   -28.3730 c3         1 U50      -0.086767
     27 C11         24.4880    47.3020   -25.9740 c3         1 U50      -0.086767
     28 C9          26.7380    46.3890   -26.4990 c3         1 U50      -0.086767
     29 C3          25.5950    50.1660   -26.9460 ca         1 U50       0.186000
     30 Cl1         23.9310    50.2040   -27.5390 cl         1 U50      -0.220000
     31 C2          26.1700    51.4390   -26.7550 ca         1 U50      -0.148000
     32 C1          27.4850    51.5120   -26.3090 ca         1 U50      -0.000200
     33 N2          28.2780    52.6090   -26.0470 na         1 U50      -0.076400
     34 N1          29.5650    52.2410   -25.6300 nd         1 U50      -0.585100
     35 H1          22.4620    43.1440   -32.5990 hc         1 U50       0.043367
     36 H2          23.9880    43.0910   -31.6890 hc         1 U50       0.043367
     37 H3          22.8070    44.3840   -31.3730 hc         1 U50       0.043367
     38 H4          24.3470    43.9560   -33.9880 hc         1 U50       0.053700
     39 H5          23.1630    45.2790   -33.6920 hc         1 U50       0.053700
     40 H6          26.1800    45.4190   -30.6240 h1         1 U50       0.062950
     41 H7          26.8890    43.8040   -30.9680 h1         1 U50       0.062950
     42 H8          27.7620    45.9810   -33.9860 h1         1 U50       0.062950
     43 H9          26.8390    47.0480   -32.8790 h1         1 U50       0.062950
     44 H10         28.8130    44.7620   -32.1430 h1         1 U50       0.101700
     45 H11         28.8070    47.4150   -31.2090 hn         1 U50       0.328500
     46 H12         31.3310    46.1500   -26.0180 h1         1 U50       0.066367
     47 H13         29.6780    45.5920   -26.4070 h1         1 U50       0.066367
     48 H14         31.0520    45.1600   -27.4660 h1         1 U50       0.066367
     49 H15         30.5710    48.1440   -25.1120 h1         1 U50       0.055200
     50 H16         32.1200    48.7330   -25.7080 h1         1 U50       0.055200
     51 H17         31.4230    50.8840   -25.1970 hn         1 U50       0.486000
     52 H18         28.2960    48.2690   -25.9240 ha         1 U50       0.120000
     53 H19         24.5620    47.9210   -28.7190 hc         1 U50       0.038033
     54 H20         26.2540    47.4940   -29.0090 hc         1 U50       0.038033
     55 H21         25.0760    46.2520   -28.5460 hc         1 U50       0.038033
     56 H22         23.6320    47.9100   -26.2760 hc         1 U50       0.038033
     57 H23         24.1550    46.2580   -26.0120 hc         1 U50       0.038033
     58 H24         24.7210    47.5410   -24.9290 hc         1 U50       0.038033
     59 H25         27.0380    46.4500   -25.4450 hc         1 U50       0.038033
     60 H26         26.2910    45.3990   -26.6500 hc         1 U50       0.038033
     61 H27         27.6330    46.4350   -27.1280 hc         1 U50       0.038033
     62 H28         25.6010    52.3410   -26.9610 ha         1 U50       0.135000
     63 H29         27.9990    53.5870   -26.1340 hn         1 U50       0.380000
@<TRIPOS>BOND
     1     1     2 1   
     2     1    35 1   
     3     1    36 1   
     4     1    37 1   
     5     2     3 1   
     6     2    38 1   
     7     2    39 1   
     8     3     4 2   
     9     3     5 1   
    10     5     6 1   
    11     5     7 1   
    12     6     8 1   
    13     6    40 1   
    14     6    41 1   
    15     7     8 1   
    16     7    42 1   
    17     7    43 1   
    18     8     9 1   
    19     8    44 1   
    20     9    10 1   
    21     9    45 1   
    22    10    11 2   
    23    10    12 1   
    24    12    13 1   
    25    12    15 2   
    26    13    14 1   
    27    13    18 1   
    28    14    46 1   
    29    14    47 1   
    30    14    48 1   
    31    15    16 1   
    32    15    17 1   
    33    17    18 2   
    34    18    19 1   
    35    19    20 1   
    36    19    49 1   
    37    19    50 1   
    38    20    21 1   
    39    20    51 1   
    40    21    22 1   
    41    21    34 2   
    42    22    23 ar  
    43    22    32 ar  
    44    23    24 ar  
    45    23    52 1   
    46    24    25 1   
    47    24    29 ar  
    48    25    26 1   
    49    25    27 1   
    50    25    28 1   
    51    26    53 1   
    52    26    54 1   
    53    26    55 1   
    54    27    56 1   
    55    27    57 1   
    56    27    58 1   
    57    28    59 1   
    58    28    60 1   
    59    28    61 1   
    60    29    30 1   
    61    29    31 ar  
    62    31    32 ar  
    63    31    62 1   
    64    32    33 1   
    65    33    34 1   
    66    33    63 1   
@<TRIPOS>SUBSTRUCTURE
     1 U50         1 TEMP              0 ****  ****    0 ROOT
