@<TRIPOS>MOLECULE
U51
   55    56     1     0     0
SMALL
No Charge or Current Charge


@<TRIPOS>ATOM
      1 OAW         -1.7030    -4.1700     1.4470 o          1 U51      -0.741500
      2 CAV         -2.2870    -4.1130     0.3750 c          1 U51       0.717000
      3 OAX         -3.1470    -4.9090     0.0310 o          1 U51      -0.741500
      4 CAR         -1.9650    -2.9380    -0.5670 c3         1 U51      -0.205400
      5 CAQ         -2.8880    -1.7350    -0.2520 c3         1 U51      -0.048400
      6 CAP         -2.6390    -0.5200    -1.1700 c3         1 U51      -0.062200
      7 CAO         -3.5300     0.6580    -0.8200 c2         1 U51      -0.178200
      8 CAN         -3.1990     1.7120    -0.0540 c2         1 U51      -0.258200
      9 CAF         -1.8760     1.9290     0.6580 c3         1 U51      -0.026200
     10 CAD         -0.8400     2.6940    -0.2020 c5         1 U51      -0.064700
     11 CAC         -1.1890     4.1900    -0.5390 c5         1 U51       0.025500
     12 CAB          0.1570     4.6650    -1.1070 c5         1 U51      -0.115400
     13 NAT         -1.2590     4.9640     0.7330 n2         1 U51      -0.164200
     14 NAS         -0.0770     5.0950     1.1770 n2         1 U51      -0.183200
     15 CAA          0.8430     4.3900     0.2440 c5         1 U51       0.025500
     16 CAE          0.5830     2.8540     0.4550 c5         1 U51      -0.043500
     17 CAG          1.6060     2.0250    -0.3220 c2         1 U51      -0.220200
     18 CAH          1.6470     0.6960    -0.1350 c2         1 U51      -0.198200
     19 CAI          2.5860    -0.2580    -0.8420 c3         1 U51      -0.044200
     20 CAJ          3.5480    -0.9600     0.1390 c3         1 U51      -0.072400
     21 CAK          4.5180    -1.9390    -0.5590 c3         1 U51      -0.075400
     22 CAL          5.4810    -2.6400     0.4250 c3         1 U51      -0.075400
     23 CAM          6.4510    -3.6180    -0.2720 c3         1 U51      -0.075400
     24 CAU          7.4120    -4.3170     0.7090 c3         1 U51      -0.088100
     25 H2          -0.9400    -2.5820    -0.4020 hc         1 U51       0.014200
     26 H3          -2.1740    -3.2130    -1.6080 hc         1 U51       0.014200
     27 H4          -3.9360    -2.0470    -0.3460 hc         1 U51       0.042200
     28 H5          -2.7390    -1.4310     0.7920 hc         1 U51       0.042200
     29 H6          -1.5810    -0.2390    -1.1060 hc         1 U51       0.032200
     30 H7          -2.8100    -0.8130    -2.2140 hc         1 U51       0.032200
     31 H8          -4.5230     0.6090    -1.2720 ha         1 U51       0.160000
     32 H10         -3.9280     2.5070     0.1160 ha         1 U51       0.159000
     33 H12         -2.0490     2.4540     1.6050 hc         1 U51       0.055200
     34 H13         -1.4510     0.9600     0.9450 hc         1 U51       0.055200
     35 H14         -0.7630     2.1280    -1.1380 hc         1 U51       0.067700
     36 H15         -2.0580     4.3330    -1.1950 h1         1 U51       0.105700
     37 H16          0.5350     4.0740    -1.9490 hc         1 U51       0.067200
     38 H17          0.1600     5.7250    -1.3880 hc         1 U51       0.067200
     39 H20          1.8900     4.7130     0.3300 h1         1 U51       0.098700
     40 H21          0.5910     2.5870     1.5200 hc         1 U51       0.076700
     41 H22          2.2950     2.4990    -1.0240 ha         1 U51       0.163000
     42 H23          0.9590     0.2110     0.5610 ha         1 U51       0.173000
     43 H24          2.0030    -1.0160    -1.3800 hc         1 U51       0.048700
     44 H25          3.1740     0.2760    -1.5980 hc         1 U51       0.048700
     45 H26          4.1270    -0.1990     0.6770 hc         1 U51       0.038700
     46 H27          2.9610    -1.5060     0.8880 hc         1 U51       0.038700
     47 H28          3.9380    -2.6990    -1.0970 hc         1 U51       0.038700
     48 H29          5.1040    -1.3920    -1.3080 hc         1 U51       0.038700
     49 H30          6.0610    -1.8800     0.9640 hc         1 U51       0.036200
     50 H31          4.8950    -3.1860     1.1750 hc         1 U51       0.036200
     51 H32          5.8750    -4.3810    -0.8100 hc         1 U51       0.037200
     52 H33          7.0400    -3.0740    -1.0210 hc         1 U51       0.037200
     53 H34          8.0790    -5.0000     0.1700 hc         1 U51       0.029033
     54 H35          8.0290    -3.5810     1.2390 hc         1 U51       0.029033
     55 H36          6.8530    -4.8990     1.4520 hc         1 U51       0.029033
@<TRIPOS>BOND
     1     1     2 1   
     2     2     3 1   
     3     2     4 1   
     4     4     5 1   
     5     4    25 1   
     6     4    26 1   
     7     5     6 1   
     8     5    27 1   
     9     5    28 1   
    10     6     7 1   
    11     6    29 1   
    12     6    30 1   
    13     7     8 2   
    14     7    31 1   
    15     8     9 1   
    16     8    32 1   
    17     9    10 1   
    18     9    33 1   
    19     9    34 1   
    20    10    11 1   
    21    10    16 1   
    22    10    35 1   
    23    11    12 1   
    24    11    13 1   
    25    11    36 1   
    26    12    15 1   
    27    12    37 1   
    28    12    38 1   
    29    13    14 2   
    30    14    15 1   
    31    15    16 1   
    32    15    39 1   
    33    16    17 1   
    34    16    40 1   
    35    17    18 2   
    36    17    41 1   
    37    18    19 1   
    38    18    42 1   
    39    19    20 1   
    40    19    43 1   
    41    19    44 1   
    42    20    21 1   
    43    20    45 1   
    44    20    46 1   
    45    21    22 1   
    46    21    47 1   
    47    21    48 1   
    48    22    23 1   
    49    22    49 1   
    50    22    50 1   
    51    23    24 1   
    52    23    51 1   
    53    23    52 1   
    54    24    53 1   
    55    24    54 1   
    56    24    55 1   
@<TRIPOS>SUBSTRUCTURE
     1 U51         1 TEMP              0 ****  ****    0 ROOT
