@<TRIPOS>MOLECULE
U51
   55    56     1     0     0
SMALL
abcg2


@<TRIPOS>ATOM
      1 OAW         -5.5230    -3.5900     0.8030 o          1 U51      -0.741500
      2 CAV         -4.6740    -3.9130    -0.0510 c          1 U51       0.717000
      3 OAX         -4.3660    -5.0780    -0.3830 o          1 U51      -0.741500
      4 CAR         -3.9190    -2.7860    -0.7780 c3         1 U51      -0.205400
      5 CAQ         -4.3000    -1.3680    -0.3840 c3         1 U51      -0.048400
      6 CAP         -3.4920    -0.3160    -1.1490 c3         1 U51      -0.062200
      7 CAO         -3.9120     1.0810    -0.8110 c2         1 U51      -0.178200
      8 CAN         -3.2290     1.9680    -0.0900 c2         1 U51      -0.258200
      9 CAF         -1.8750     1.7620     0.5200 c3         1 U51      -0.026200
     10 CAD         -0.7500     2.3890    -0.3010 c5         1 U51      -0.064700
     11 CAC         -0.8460     3.9170    -0.5520 c5         1 U51       0.025500
     12 CAB          0.5740     4.2400    -0.9970 c5         1 U51      -0.115400
     13 NAT         -0.8690     4.5260     0.7930 n2         1 U51      -0.164200
     14 NAS          0.2560     4.4230     1.2900 n2         1 U51      -0.183200
     15 CAA          1.1400     3.7370     0.3240 c5         1 U51       0.025500
     16 CAE          0.6470     2.2620     0.3720 c5         1 U51      -0.043500
     17 CAG          1.5650     1.3120    -0.3250 c2         1 U51      -0.220200
     18 CAH          2.0190     0.1840     0.2140 c2         1 U51      -0.198200
     19 CAI          2.9380    -0.7820    -0.4620 c3         1 U51      -0.044200
     20 CAJ          4.2320    -0.9990     0.3240 c3         1 U51      -0.072400
     21 CAK          5.1890    -1.9670    -0.3600 c3         1 U51      -0.075400
     22 CAL          6.4640    -2.2080     0.4390 c3         1 U51      -0.075400
     23 CAM          7.4540    -3.1280    -0.2650 c3         1 U51      -0.075400
     24 CAU          8.7150    -3.3720     0.5530 c3         1 U51      -0.088100
     25 H2          -2.8450    -2.9340    -0.6190 hc         1 U51       0.014200
     26 H3          -4.0640    -2.9170    -1.8570 hc         1 U51       0.014200
     27 H4          -5.3660    -1.2050    -0.5620 hc         1 U51       0.042200
     28 H5          -4.1440    -1.2220     0.6880 hc         1 U51       0.042200
     29 H6          -2.4260    -0.4610    -0.9520 hc         1 U51       0.032200
     30 H7          -3.6260    -0.4750    -2.2240 hc         1 U51       0.032200
     31 H8          -4.8890     1.3760    -1.1850 ha         1 U51       0.160000
     32 H10         -3.6730     2.9460     0.0700 ha         1 U51       0.159000
     33 H12         -1.8660     2.1780     1.5310 hc         1 U51       0.055200
     34 H13         -1.6530     0.6980     0.6310 hc         1 U51       0.055200
     35 H14         -0.7350     1.9060    -1.2820 hc         1 U51       0.067700
     36 H15         -1.6830     4.2450    -1.1620 h1         1 U51       0.105700
     37 H16          0.8980     3.6720    -1.8680 hc         1 U51       0.067200
     38 H17          0.7520     5.3020    -1.1710 hc         1 U51       0.067200
     39 H20          2.1910     3.8920     0.5550 h1         1 U51       0.098700
     40 H21          0.5410     1.9430     1.4140 hc         1 U51       0.076700
     41 H22          1.8550     1.5670    -1.3430 ha         1 U51       0.163000
     42 H23          1.7230    -0.0660     1.2310 ha         1 U51       0.173000
     43 H24          2.4340    -1.7480    -0.5770 hc         1 U51       0.048700
     44 H25          3.1700    -0.4310    -1.4710 hc         1 U51       0.048700
     45 H26          4.7320    -0.0360     0.4700 hc         1 U51       0.038700
     46 H27          3.9890    -1.3710     1.3250 hc         1 U51       0.038700
     47 H28          4.6810    -2.9220    -0.5330 hc         1 U51       0.038700
     48 H29          5.4480    -1.5770    -1.3510 hc         1 U51       0.038700
     49 H30          6.9500    -1.2490     0.6480 hc         1 U51       0.036200
     50 H31          6.2050    -2.6350     1.4150 hc         1 U51       0.036200
     51 H32          6.9670    -4.0840    -0.4860 hc         1 U51       0.037200
     52 H33          7.7210    -2.6940    -1.2340 hc         1 U51       0.037200
     53 H34          9.4170    -4.0210     0.0280 hc         1 U51       0.029033
     54 H35          9.2290    -2.4340     0.7700 hc         1 U51       0.029033
     55 H36          8.4790    -3.8450     1.5080 hc         1 U51       0.029033
@<TRIPOS>BOND
     1     1     2 1   
     2     2     3 1   
     3     2     4 1   
     4     4     5 1   
     5     4    25 1   
     6     4    26 1   
     7     5     6 1   
     8     5    27 1   
     9     5    28 1   
    10     6     7 1   
    11     6    29 1   
    12     6    30 1   
    13     7     8 2   
    14     7    31 1   
    15     8     9 1   
    16     8    32 1   
    17     9    10 1   
    18     9    33 1   
    19     9    34 1   
    20    10    11 1   
    21    10    16 1   
    22    10    35 1   
    23    11    12 1   
    24    11    13 1   
    25    11    36 1   
    26    12    15 1   
    27    12    37 1   
    28    12    38 1   
    29    13    14 2   
    30    14    15 1   
    31    15    16 1   
    32    15    39 1   
    33    16    17 1   
    34    16    40 1   
    35    17    18 2   
    36    17    41 1   
    37    18    19 1   
    38    18    42 1   
    39    19    20 1   
    40    19    43 1   
    41    19    44 1   
    42    20    21 1   
    43    20    45 1   
    44    20    46 1   
    45    21    22 1   
    46    21    47 1   
    47    21    48 1   
    48    22    23 1   
    49    22    49 1   
    50    22    50 1   
    51    23    24 1   
    52    23    51 1   
    53    23    52 1   
    54    24    53 1   
    55    24    54 1   
    56    24    55 1   
@<TRIPOS>SUBSTRUCTURE
     1 U51         1 TEMP              0 ****  ****    0 ROOT
