@<TRIPOS>MOLECULE
U52
   63    66     1     0     0
SMALL
bcc


@<TRIPOS>ATOM
      1 C4          -5.3380    -1.9840    -0.2840 c          1 U52       0.666100
      2 C5          -4.0430    -1.1890    -0.3340 c3         1 U52       0.043400
      3 C10         -3.7600     2.3090     0.6090 c          1 U52       0.710700
      4 C13          0.8370     3.7820     0.2600 ca         1 U52      -0.135000
      5 C15         -1.4460     3.0340     0.4440 ca         1 U52       0.061600
      6 C17          0.3090     1.5050    -0.2490 ca         1 U52      -0.094000
      7 C22          3.3700     1.2340    -0.2780 ca         1 U52       0.771200
      8 C24          3.6190    -0.8990     0.5130 ca         1 U52       0.956900
      9 C26          5.3960     0.0280    -0.5290 ca         1 U52       0.519200
     10 C28          3.6860    -3.2450     1.2270 c6         1 U52       0.219300
     11 N2          -5.3510    -3.0530    -1.0860 ns         1 U52      -0.581900
     12 O3          -6.2530    -1.6840     0.4630 o          1 U52      -0.554100
     13 O6          -4.3340     0.1200     0.0790 os         1 U52      -0.246900
     14 O7          -4.9360     2.5320     0.8500 o          1 U52      -0.586500
     15 N9          -2.7840     3.2650     0.7280 n          1 U52      -0.344000
     16 C11         -3.3120     0.9790     0.1680 cc         1 U52       0.039900
     17 C12         -2.0170     0.7220    -0.0990 cd         1 U52      -0.182200
     18 C14         -0.4870     4.0450     0.5410 ca         1 U52      -0.147000
     19 C16         -1.0360     1.7550     0.0380 ca         1 U52      -0.068800
     20 C18          1.2560     2.5080    -0.1370 ca         1 U52       0.139600
     21 N19          2.6060     2.3360    -0.4630 nu         1 U52      -0.744300
     22 N20          3.0780    -1.9290     1.2020 nh         1 U52      -0.755300
     23 N23          2.8580     0.1850     0.3370 nb         1 U52      -0.848000
     24 N25          4.8800    -1.0270     0.0800 nb         1 U52      -0.795000
     25 C27          4.7040     1.1980    -0.7330 ca         1 U52      -0.355200
     26 C29          2.9470    -4.2030     0.2930 c6         1 U52      -0.089200
     27 C30          1.4560    -4.2130     0.6290 c6         1 U52      -0.072400
     28 C31          0.8440    -2.8150     0.7030 c6         1 U52      -0.089200
     29 C32          1.6900    -1.9320     1.6170 c6         1 U52       0.219300
     30 C33          3.5480    -5.5990     0.3780 c3         1 U52      -0.086600
     31 C34         -0.5960    -2.8640     1.1940 c3         1 U52      -0.086600
     32 H1          -3.3220    -1.6660     0.3430 h1         1 U52       0.048200
     33 H2          -3.6070    -1.2020    -1.3390 h1         1 U52       0.048200
     34 H3          -4.2380     4.6010     1.3920 h1         1 U52       0.056033
     35 H4          -2.6310     4.8740     2.0670 h1         1 U52       0.056033
     36 H5          -2.9820     5.3310     0.3900 h1         1 U52       0.056033
     37 H6           1.5620     4.5810     0.3520 ha         1 U52       0.135000
     38 H7           0.5910     0.5130    -0.5700 ha         1 U52       0.155000
     39 H8           6.4200    -0.0590    -0.8780 h4         1 U52       0.031100
     40 H9           4.7360    -3.1680     0.9590 h1         1 U52       0.067950
     41 H10          3.6340    -3.6240     2.2550 h1         1 U52       0.067950
     42 H11         -7.3690    -3.5320    -1.4600 h1         1 U52       0.042367
     43 H12         -6.1890    -4.8070    -1.7750 h1         1 U52       0.042367
     44 H13         -6.6300    -4.4100    -0.1130 h1         1 U52       0.042367
     45 H14         -4.5750    -3.2160    -1.7060 hn         1 U52       0.313500
     46 H15         -1.6830    -0.2530    -0.4310 ha         1 U52       0.140000
     47 H16         -0.7550     5.0480     0.8390 ha         1 U52       0.141000
     48 H17          3.0810     3.1610    -0.7950 hn         1 U52       0.457800
     49 H18          3.0750    -3.8300    -0.7310 hc         1 U52       0.054700
     50 H19          0.9130    -4.8220    -0.0990 hc         1 U52       0.041200
     51 H20          1.3190    -4.7020     1.6030 hc         1 U52       0.041200
     52 H21          0.8590    -2.3670    -0.2990 hc         1 U52       0.054700
     53 H22          1.6470    -2.3240     2.6400 h1         1 U52       0.067950
     54 H23          1.3110    -0.9130     1.6390 h1         1 U52       0.067950
     55 H24          3.4610    -6.0000     1.3910 hc         1 U52       0.035700
     56 H25          3.0380    -6.2900    -0.2950 hc         1 U52       0.035700
     57 H26          4.6060    -5.5960     0.1110 hc         1 U52       0.035700
     58 H27         -0.6580    -3.3290     2.1800 hc         1 U52       0.035700
     59 H28         -1.0210    -1.8620     1.2810 hc         1 U52       0.035700
     60 H29         -1.2260    -3.4390     0.5150 hc         1 U52       0.035700
     61 C8          -3.1790     4.5950     1.1690 c3         1 U52       0.072300
     62 C1          -6.4470    -3.9930    -1.1040 c3         1 U52       0.097300
     63 CL1          5.4320     2.5460    -1.5370 cl         1 U52      -0.099400
@<TRIPOS>BOND
     1     1     2 1   
     2     1    11 1   
     3     1    12 2   
     4     2    13 1   
     5     2    32 1   
     6     2    33 1   
     7     3    14 2   
     8     3    15 1   
     9     3    16 1   
    10     4    18 ar  
    11     4    20 ar  
    12     4    37 1   
    13     5    15 1   
    14     5    18 ar  
    15     5    19 ar  
    16     6    19 ar  
    17     6    20 ar  
    18     6    38 1   
    19     7    21 1   
    20     7    23 ar  
    21     7    25 ar  
    22     8    22 1   
    23     8    23 ar  
    24     8    24 ar  
    25     9    24 ar  
    26     9    25 ar  
    27     9    39 1   
    28    10    22 1   
    29    10    26 1   
    30    10    40 1   
    31    10    41 1   
    32    11    45 1   
    33    11    62 1   
    34    13    16 1   
    35    15    61 1   
    36    16    17 2   
    37    17    19 1   
    38    17    46 1   
    39    18    47 1   
    40    20    21 1   
    41    21    48 1   
    42    22    29 1   
    43    25    63 1   
    44    26    27 1   
    45    26    30 1   
    46    26    49 1   
    47    27    28 1   
    48    27    50 1   
    49    27    51 1   
    50    28    29 1   
    51    28    31 1   
    52    28    52 1   
    53    29    53 1   
    54    29    54 1   
    55    30    55 1   
    56    30    56 1   
    57    30    57 1   
    58    31    58 1   
    59    31    59 1   
    60    31    60 1   
    61    34    61 1   
    62    35    61 1   
    63    36    61 1   
    64    42    62 1   
    65    43    62 1   
    66    44    62 1   
@<TRIPOS>SUBSTRUCTURE
     1 U52         1 TEMP              0 ****  ****    0 ROOT
