@<TRIPOS>MOLECULE
U52
   63    66     1     0     0
SMALL
No Charge or Current Charge


@<TRIPOS>ATOM
      1 C4          -5.2210    -2.1470    -0.4270 c          1 U52       0.599100
      2 C5          -3.9770    -1.2350    -0.3290 c3         1 U52       0.066600
      3 C10         -3.8830     2.5500     0.4220 c          1 U52       0.568200
      4 C13          0.8930     3.9140     0.2230 ca         1 U52      -0.117000
      5 C15         -1.4540     3.2260     0.3900 ca         1 U52       0.061600
      6 C17          0.2990     1.5960    -0.1210 ca         1 U52      -0.076000
      7 C22          3.4530     1.1960    -0.0960 ca         1 U52       0.442900
      8 C24          3.7110    -0.9540     0.6620 ca         1 U52       0.430900
      9 C26          5.5250     0.0220    -0.3590 ca         1 U52       0.190900
     10 C28          3.6190    -3.4750     1.0270 c6         1 U52       0.219300
     11 N2          -4.9450    -3.4730    -0.6930 ns         1 U52      -0.514900
     12 O3          -6.3710    -1.7480    -0.2840 o          1 U52      -0.554100
     13 O6          -4.3300     0.1410    -0.0470 os         1 U52      -0.270100
     14 O7          -5.0730     2.8210     0.5580 o          1 U52      -0.511000
     15 N9          -2.8600     3.5300     0.5680 n          1 U52      -0.277000
     16 C11         -3.4090     1.1690     0.0990 cc         1 U52       0.039900
     17 C12         -2.0680     0.8600    -0.0580 cd         1 U52      -0.232200
     18 C14         -0.4620     4.2330     0.4270 ca         1 U52      -0.129000
     19 C16         -1.0590     1.9070     0.0780 ca         1 U52      -0.068800
     20 C18          1.2890     2.5930    -0.0320 ca         1 U52       0.278000
     21 N19          2.6500     2.3260    -0.2360 nu         1 U52      -0.937900
     22 N20          3.1410    -2.0860     1.3030 nh         1 U52      -0.755300
     23 N23          2.9260     0.1310     0.5220 nb         1 U52      -0.322000
     24 N25          4.9900    -1.0560     0.2460 nb         1 U52      -0.269000
     25 C27          4.7830     1.1970    -0.5540 ca         1 U52      -0.133000
     26 C29          2.6670    -4.1720     0.0140 c6         1 U52      -0.089200
     27 C30          1.2030    -4.1540     0.5350 c6         1 U52      -0.072400
     28 C31          0.7550    -2.7110     0.8970 c6         1 U52      -0.089200
     29 C32          1.7640    -2.0650     1.8850 c6         1 U52       0.219300
     30 C33          3.1380    -5.6150    -0.3090 c3         1 U52      -0.086600
     31 C34         -0.6890    -2.6890     1.4630 c3         1 U52      -0.086600
     32 H1          -3.3390    -1.6400     0.4660 h1         1 U52       0.048200
     33 H2          -3.4390    -1.3120    -1.2820 h1         1 U52       0.048200
     34 H3          -4.3090     4.9660     1.2660 h1         1 U52       0.056033
     35 H4          -2.6570     5.2040     1.8610 h1         1 U52       0.056033
     36 H5          -3.0640     5.6050     0.1660 h1         1 U52       0.056033
     37 H6           1.6380     4.7040     0.2700 ha         1 U52       0.117000
     38 H7           0.5750     0.5790    -0.3750 ha         1 U52       0.137000
     39 H8           6.5590    -0.0590    -0.6890 h4         1 U52       0.031100
     40 H9           4.6460    -3.4910     0.6340 h1         1 U52       0.067950
     41 H10          3.6430    -4.0530     1.9630 h1         1 U52       0.067950
     42 H11         -6.6420    -4.2680    -1.6540 h1         1 U52       0.042367
     43 H12         -5.4780    -5.4790    -1.0370 h1         1 U52       0.042367
     44 H13         -6.5370    -4.5980     0.1050 h1         1 U52       0.042367
     45 H14         -3.9690    -3.7300    -0.8020 hn         1 U52       0.313500
     46 H15         -1.7300    -0.1420    -0.2950 ha         1 U52       0.190000
     47 H16         -0.7170     5.2710     0.6180 ha         1 U52       0.123000
     48 H17          3.1980     3.1450    -0.4990 hn         1 U52       0.513000
     49 H18          2.7080    -3.6160    -0.9330 hc         1 U52       0.054700
     50 H19          0.5310    -4.5740    -0.2260 hc         1 U52       0.041200
     51 H20          1.1170    -4.8010     1.4200 hc         1 U52       0.041200
     52 H21          0.7360    -2.1080    -0.0210 hc         1 U52       0.054700
     53 H22          1.7550    -2.6260     2.8310 h1         1 U52       0.067950
     54 H23          1.4380    -1.0450     2.1400 h1         1 U52       0.067950
     55 H24          3.1340    -6.2470     0.5880 hc         1 U52       0.035700
     56 H25          2.4840    -6.0870    -1.0530 hc         1 U52       0.035700
     57 H26          4.1560    -5.6180    -0.7150 hc         1 U52       0.035700
     58 H27         -0.7630    -3.2690     2.3920 hc         1 U52       0.035700
     59 H28         -1.0120    -1.6650     1.6840 hc         1 U52       0.035700
     60 H29         -1.4000    -3.1160     0.7460 hc         1 U52       0.035700
     61 C8          -3.2500     4.9030     0.9880 c3         1 U52       0.072300
     62 C1          -5.9640    -4.5180    -0.8280 c3         1 U52       0.097300
     63 Cl1          5.5090     2.6010    -1.3450 cl         1 U52      -0.191000
@<TRIPOS>BOND
     1     1     2 1   
     2     1    11 1   
     3     1    12 2   
     4     2    13 1   
     5     2    32 1   
     6     2    33 1   
     7     3    14 2   
     8     3    15 1   
     9     3    16 1   
    10     4    18 ar  
    11     4    20 ar  
    12     4    37 1   
    13     5    15 1   
    14     5    18 ar  
    15     5    19 ar  
    16     6    19 ar  
    17     6    20 ar  
    18     6    38 1   
    19     7    21 1   
    20     7    23 ar  
    21     7    25 ar  
    22     8    22 1   
    23     8    23 ar  
    24     8    24 ar  
    25     9    24 ar  
    26     9    25 ar  
    27     9    39 1   
    28    10    22 1   
    29    10    26 1   
    30    10    40 1   
    31    10    41 1   
    32    11    45 1   
    33    11    62 1   
    34    13    16 1   
    35    15    61 1   
    36    16    17 2   
    37    17    19 1   
    38    17    46 1   
    39    18    47 1   
    40    20    21 1   
    41    21    48 1   
    42    22    29 1   
    43    25    63 1   
    44    26    27 1   
    45    26    30 1   
    46    26    49 1   
    47    27    28 1   
    48    27    50 1   
    49    27    51 1   
    50    28    29 1   
    51    28    31 1   
    52    28    52 1   
    53    29    53 1   
    54    29    54 1   
    55    30    55 1   
    56    30    56 1   
    57    30    57 1   
    58    31    58 1   
    59    31    59 1   
    60    31    60 1   
    61    34    61 1   
    62    35    61 1   
    63    36    61 1   
    64    42    62 1   
    65    43    62 1   
    66    44    62 1   
@<TRIPOS>SUBSTRUCTURE
     1 U52         1 TEMP              0 ****  ****    0 ROOT
