@<TRIPOS>MOLECULE
U53
   38    39     1     0     0
SMALL
bcc


@<TRIPOS>ATOM
      1 O2           3.0640    -0.5540     0.4440 o          1 U53      -0.520000
      2 C12          2.6590     0.5630     0.2520 c          1 U53       0.664700
      3 O1           3.4250     1.5980    -0.0400 os         1 U53      -0.418900
      4 C13          4.8490     1.3960    -0.0870 c3         1 U53       0.144400
      5 C14          5.4930     2.7300    -0.3710 c3         1 U53      -0.098100
      6 C10          1.2290     0.9730     0.3590 ca         1 U53      -0.195900
      7 C11          0.9270     2.1720     1.0560 ca         1 U53       0.428200
      8 N1          -0.2820     2.5950     1.2780 nb         1 U53      -0.637000
      9 C4          -1.3180     1.8680     0.8040 ca         1 U53       0.368600
     10 C3          -2.6270     2.3330     1.0430 ca         1 U53      -0.129300
     11 C2          -3.7160     1.6470     0.5830 ca         1 U53      -0.186000
     12 C6           0.1940     0.2180    -0.1390 ca         1 U53       0.095900
     13 S            0.4900    -1.2310    -1.1180 ss         1 U53      -0.281000
     14 C7           0.3880    -2.5010     0.1830 c3         1 U53       0.014700
     15 C8           0.6290    -3.8580    -0.4750 c3         1 U53      -0.007300
     16 C9           0.5650    -4.9250     0.5100 c1         1 U53       0.210700
     17 N            0.5050    -5.7630     1.2960 n1         1 U53      -0.367800
     18 C5          -1.1420     0.6650     0.0700 ca         1 U53      -0.090300
     19 C15         -2.2720    -0.0240    -0.4030 ca         1 U53      -0.165000
     20 C1          -3.5410     0.4500    -0.1520 ca         1 U53       0.151100
     21 O           -4.5620    -0.2730    -0.6370 os         1 U53      -0.314900
     22 C           -5.8910     0.1560    -0.3990 c3         1 U53       0.125700
     23 H1           5.1910     0.9900     0.8670 h1         1 U53       0.050700
     24 H2           5.0850     0.6700    -0.8670 h1         1 U53       0.050700
     25 H3           5.1600     3.1430    -1.3240 hc         1 U53       0.049033
     26 H4           5.2830     3.4530     0.4170 hc         1 U53       0.049033
     27 H5           6.5730     2.5980    -0.4250 hc         1 U53       0.049033
     28 H6           1.7350     2.7780     1.4510 h4         1 U53       0.036100
     29 H7          -2.7550     3.2510     1.6010 ha         1 U53       0.153000
     30 H8          -4.7030     2.0370     0.7860 ha         1 U53       0.142000
     31 H9           1.1480    -2.2980     0.9330 h1         1 U53       0.082200
     32 H10         -0.5970    -2.4720     0.6480 h1         1 U53       0.082200
     33 H11         -0.1180    -4.0610    -1.2450 hc         1 U53       0.082700
     34 H12          1.6110    -3.8920    -0.9520 hc         1 U53       0.082700
     35 H13         -2.1470    -0.9320    -0.9770 ha         1 U53       0.166000
     36 H14         -6.0940     1.1280    -0.8540 h1         1 U53       0.044367
     37 H15         -6.5370    -0.5870    -0.8590 h1         1 U53       0.044367
     38 H16         -6.1190     0.2070     0.6680 h1         1 U53       0.044367
@<TRIPOS>BOND
     1     1     2 2   
     2     2     3 1   
     3     2     6 1   
     4     3     4 1   
     5     4     5 1   
     6     4    23 1   
     7     4    24 1   
     8     5    25 1   
     9     5    26 1   
    10     5    27 1   
    11     6     7 ar  
    12     6    12 ar  
    13     7     8 ar  
    14     7    28 1   
    15     8     9 ar  
    16     9    10 ar  
    17     9    18 ar  
    18    10    11 ar  
    19    10    29 1   
    20    11    20 ar  
    21    11    30 1   
    22    12    13 1   
    23    12    18 ar  
    24    13    14 1   
    25    14    15 1   
    26    14    31 1   
    27    14    32 1   
    28    15    16 1   
    29    15    33 1   
    30    15    34 1   
    31    16    17 3   
    32    18    19 ar  
    33    19    20 ar  
    34    19    35 1   
    35    20    21 1   
    36    21    22 1   
    37    22    36 1   
    38    22    37 1   
    39    22    38 1   
@<TRIPOS>SUBSTRUCTURE
     1 U53         1 TEMP              0 ****  ****    0 ROOT
