@<TRIPOS>MOLECULE
U53
   38    39     1     0     0
SMALL
No Charge or Current Charge


@<TRIPOS>ATOM
      1 O2           3.1290    -0.5250     0.3260 o          1 U53      -0.471000
      2 C12          2.7100     0.6150     0.1680 c          1 U53       0.615700
      3 O1           3.5310     1.6990    -0.0110 os         1 U53      -0.442100
      4 C13          4.9450     1.4690    -0.1250 c3         1 U53       0.167600
      5 C14          5.6190     2.8350    -0.3260 c3         1 U53      -0.098100
      6 C10          1.2710     1.0010     0.3390 ca         1 U53      -0.130600
      7 C11          0.9870     2.1850     1.0350 ca         1 U53       0.362900
      8 N1          -0.2680     2.6280     1.2710 nb         1 U53      -0.637000
      9 C4          -1.3110     1.9030     0.8100 ca         1 U53       0.238000
     10 C3          -2.6210     2.3590     1.0510 ca         1 U53      -0.046000
     11 C2          -3.7400     1.6470     0.5880 ca         1 U53      -0.168000
     12 C6           0.1910     0.2320    -0.1570 ca         1 U53      -0.031000
     13 S            0.4930    -1.2650    -1.1030 ss         1 U53      -0.202000
     14 C7           0.3220    -2.5850     0.1770 c3         1 U53       0.062600
     15 C8           0.5670    -3.9730    -0.4440 c3         1 U53      -0.007300
     16 C9           0.4450    -5.0530     0.5400 c1         1 U53       0.299900
     17 N            0.3390    -5.8920     1.3410 n1         1 U53      -0.457000
     18 C5          -1.1290     0.6940     0.0840 ca         1 U53      -0.025000
     19 C15         -2.2610    -0.0160    -0.3840 ca         1 U53      -0.147000
     20 C1          -3.5590     0.4520    -0.1350 ca         1 U53       0.151100
     21 O           -4.6160    -0.2920    -0.6190 os         1 U53      -0.338100
     22 C           -5.9860     0.0990    -0.4190 c3         1 U53       0.148900
     23 H1           5.3410     0.9960     0.7840 h1         1 U53       0.050700
     24 H2           5.1690     0.8190    -0.9820 h1         1 U53       0.050700
     25 H3           5.2470     3.3180    -1.2380 hc         1 U53       0.049033
     26 H4           5.4180     3.4940     0.5270 hc         1 U53       0.049033
     27 H5           6.7040     2.7130    -0.4190 hc         1 U53       0.049033
     28 H6           1.7870     2.8040     1.4410 h4         1 U53       0.036100
     29 H7          -2.7670     3.2820     1.6060 ha         1 U53       0.135000
     30 H8          -4.7310     2.0380     0.7990 ha         1 U53       0.124000
     31 H9           1.0510    -2.3970     0.9770 h1         1 U53       0.082200
     32 H10         -0.6860    -2.5350     0.6080 h1         1 U53       0.082200
     33 H11         -0.1520    -4.1500    -1.2510 hc         1 U53       0.082700
     34 H12          1.5700    -4.0100    -0.8830 hc         1 U53       0.082700
     35 H13         -2.1560    -0.9370    -0.9470 ha         1 U53       0.148000
     36 H14         -6.1830     1.0790    -0.8720 h1         1 U53       0.044367
     37 H15         -6.6610    -0.6310    -0.8830 h1         1 U53       0.044367
     38 H16         -6.2260     0.1500     0.6510 h1         1 U53       0.044367
@<TRIPOS>BOND
     1     1     2 2   
     2     2     3 1   
     3     2     6 1   
     4     3     4 1   
     5     4     5 1   
     6     4    23 1   
     7     4    24 1   
     8     5    25 1   
     9     5    26 1   
    10     5    27 1   
    11     6     7 ar  
    12     6    12 ar  
    13     7     8 ar  
    14     7    28 1   
    15     8     9 ar  
    16     9    10 ar  
    17     9    18 ar  
    18    10    11 ar  
    19    10    29 1   
    20    11    20 ar  
    21    11    30 1   
    22    12    13 1   
    23    12    18 ar  
    24    13    14 1   
    25    14    15 1   
    26    14    31 1   
    27    14    32 1   
    28    15    16 1   
    29    15    33 1   
    30    15    34 1   
    31    16    17 3   
    32    18    19 ar  
    33    19    20 ar  
    34    19    35 1   
    35    20    21 1   
    36    21    22 1   
    37    22    36 1   
    38    22    37 1   
    39    22    38 1   
@<TRIPOS>SUBSTRUCTURE
     1 U53         1 TEMP              0 ****  ****    0 ROOT
