@<TRIPOS>MOLECULE
U54
   71    72     1     0     0
SMALL
No Charge or Current Charge


@<TRIPOS>ATOM
      1 C1         -13.4480   -32.3590    95.8660 c6         1 U54       0.192500
      2 C2         -12.0470   -32.6030    96.4960 c6         1 U54      -0.076400
      3 C3         -12.0340   -32.5630    98.0550 c6         1 U54       0.185300
      4 C4         -13.3100   -31.8870    98.6540 c6         1 U54       0.130300
      5 C5         -13.6580   -30.6220    97.8230 c6         1 U54       0.149300
      6 C6         -14.1080   -31.0240    96.3760 c6         1 U54      -0.082700
      7 C7         -13.9220   -29.8570    95.3630 c3         1 U54       0.160600
      8 O3         -11.8430   -33.8700    98.6210 oh         1 U54      -0.727000
      9 O5         -14.6900   -29.8660    98.4920 oh         1 U54      -0.741000
     10 O7         -12.5490   -29.4860    95.1930 oh         1 U54      -0.675000
     11 O4         -13.1080   -31.5350   100.0350 oh         1 U54      -0.677000
     12 N1         -14.3200   -33.5350    96.0930 n7         1 U54      -0.871400
     13 C13        -15.4540   -33.7240    95.1700 c3         1 U54       0.160800
     14 C14        -16.2600   -34.9740    95.5730 c3         1 U54      -0.079400
     15 C15        -17.4700   -35.2320    94.6480 c3         1 U54      -0.073400
     16 C16        -18.2830   -36.4830    95.0490 c3         1 U54      -0.074400
     17 C17        -19.4920   -36.7400    94.1230 c3         1 U54      -0.073400
     18 C18        -20.3050   -37.9900    94.5250 c3         1 U54      -0.073400
     19 C19        -21.5140   -38.2460    93.5980 c3         1 U54      -0.097400
     20 C20        -22.3260   -39.4970    94.0000 c3         1 U54       0.079600
     21 N49        -23.4810   -39.7400    93.1210 na         1 U54       0.118800
     22 C53        -24.7070   -39.1280    93.1710 cc         1 U54      -0.209000
     23 C52        -25.3940   -39.7140    92.1470 cd         1 U54       0.208300
     24 N51        -24.5810   -40.6360    91.5200 nd         1 U54      -0.363000
     25 N50        -23.4170   -40.6530    92.1110 nc         1 U54      -0.207800
     26 C54        -26.8110   -39.4470    91.7070 c3         1 U54      -0.092700
     27 C55        -27.8680   -39.8510    92.7610 c3         1 U54      -0.071400
     28 C56        -27.8890   -41.3640    93.0770 c3         1 U54      -0.080400
     29 C57        -28.9760   -41.7440    94.1030 c3         1 U54       0.150800
     30 N58        -28.9750   -43.1910    94.3860 n8         1 U54      -1.001200
     31 H1         -13.2970   -32.2830    94.7780 h1         1 U54       0.031700
     32 H2         -11.3670   -31.8240    96.1270 hc         1 U54       0.063200
     33 H3         -11.6230   -33.5470    96.1290 hc         1 U54       0.063200
     34 H4         -11.1750   -31.9360    98.3390 h1         1 U54       0.042700
     35 H5         -14.1560   -32.5870    98.5740 h1         1 U54       0.075700
     36 H6         -12.7400   -30.0180    97.7550 h1         1 U54       0.055700
     37 H7         -15.1940   -31.1840    96.4060 hc         1 U54       0.081700
     38 H8         -14.5030   -28.9930    95.7120 h1         1 U54       0.024700
     39 H9         -14.3490   -30.1650    94.3990 h1         1 U54       0.024700
     40 H10        -12.0270   -33.7590    99.5840 ho         1 U54       0.513000
     41 H11        -14.7560   -28.9970    98.0320 ho         1 U54       0.507000
     42 H12        -12.5260   -28.7620    94.5280 ho         1 U54       0.442000
     43 H13        -13.7310   -30.7820   100.1720 ho         1 U54       0.460000
     44 H16        -15.0900   -33.8490    94.1410 h1         1 U54       0.024700
     45 H17        -16.1200   -32.8510    95.1860 h1         1 U54       0.024700
     46 H18        -16.6150   -34.8540    96.6050 hc         1 U54       0.047700
     47 H19        -15.6010   -35.8510    95.5580 hc         1 U54       0.047700
     48 H20        -18.1280   -34.3540    94.6630 hc         1 U54       0.037200
     49 H21        -17.1150   -35.3480    93.6160 hc         1 U54       0.037200
     50 H22        -18.6370   -36.3660    96.0810 hc         1 U54       0.040200
     51 H23        -17.6240   -37.3600    95.0340 hc         1 U54       0.040200
     52 H24        -19.1370   -36.8560    93.0920 hc         1 U54       0.040200
     53 H25        -20.1500   -35.8620    94.1390 hc         1 U54       0.040200
     54 H26        -20.6600   -37.8730    95.5560 hc         1 U54       0.042200
     55 H27        -19.6470   -38.8680    94.5090 hc         1 U54       0.042200
     56 H28        -21.1610   -38.3660    92.5660 hc         1 U54       0.055200
     57 H29        -22.1730   -37.3700    93.6130 hc         1 U54       0.055200
     58 H30        -22.6950   -39.3790    95.0270 h1         1 U54       0.071700
     59 H31        -21.6750   -40.3800    93.9790 h1         1 U54       0.071700
     60 H32        -24.9810   -38.3690    93.8900 h4         1 U54       0.163000
     61 H33        -27.0210   -39.9740    90.7680 hc         1 U54       0.058200
     62 H34        -26.9230   -38.3790    91.4890 hc         1 U54       0.058200
     63 H35        -27.6880   -39.2880    93.6850 hc         1 U54       0.036200
     64 H36        -28.8580   -39.5490    92.3960 hc         1 U54       0.036200
     65 H37        -28.0560   -41.9230    92.1480 hc         1 U54       0.051700
     66 H38        -26.9100   -41.6690    93.4660 hc         1 U54       0.051700
     67 H39        -28.8020   -41.2030    95.0440 h1         1 U54       0.024200
     68 H40        -29.9660   -41.4620    93.7170 h1         1 U54       0.024200
     69 H41        -29.7510   -43.4070    95.0240 hn         1 U54       0.392000
     70 H42        -29.2220   -43.6980    93.5270 hn         1 U54       0.392000
     71 H14        -13.7360   -34.3780    96.0350 hn         1 U54       0.424000
@<TRIPOS>BOND
     1     1     2 1   
     2     1     6 1   
     3     1    12 1   
     4     1    31 1   
     5     2     3 1   
     6     2    32 1   
     7     2    33 1   
     8     3     4 1   
     9     3     8 1   
    10     3    34 1   
    11     4     5 1   
    12     4    11 1   
    13     4    35 1   
    14     5     6 1   
    15     5     9 1   
    16     5    36 1   
    17     6     7 1   
    18     6    37 1   
    19     7    10 1   
    20     7    38 1   
    21     7    39 1   
    22     8    40 1   
    23     9    41 1   
    24    10    42 1   
    25    11    43 1   
    26    12    13 1   
    27    12    71 1   
    28    13    14 1   
    29    13    44 1   
    30    13    45 1   
    31    14    15 1   
    32    14    46 1   
    33    14    47 1   
    34    15    16 1   
    35    15    48 1   
    36    15    49 1   
    37    16    17 1   
    38    16    50 1   
    39    16    51 1   
    40    17    18 1   
    41    17    52 1   
    42    17    53 1   
    43    18    19 1   
    44    18    54 1   
    45    18    55 1   
    46    19    20 1   
    47    19    56 1   
    48    19    57 1   
    49    20    21 1   
    50    20    58 1   
    51    20    59 1   
    52    21    22 1   
    53    21    25 1   
    54    22    23 2   
    55    22    60 1   
    56    23    24 1   
    57    23    26 1   
    58    24    25 2   
    59    26    27 1   
    60    26    61 1   
    61    26    62 1   
    62    27    28 1   
    63    27    63 1   
    64    27    64 1   
    65    28    29 1   
    66    28    65 1   
    67    28    66 1   
    68    29    30 1   
    69    29    67 1   
    70    29    68 1   
    71    30    69 1   
    72    30    70 1   
@<TRIPOS>SUBSTRUCTURE
     1 U54         1 TEMP              0 ****  ****    0 ROOT
