@<TRIPOS>MOLECULE
U54
   71    72     1     0     0
SMALL
abcg2


@<TRIPOS>ATOM
      1 C1         -13.7170   -32.3240    95.8510 c6         1 U54       0.192500
      2 C2         -12.2640   -32.4810    96.3010 c6         1 U54      -0.076400
      3 C3         -12.0750   -32.6310    97.8130 c6         1 U54       0.185300
      4 C4         -13.2050   -31.9740    98.5990 c6         1 U54       0.130300
      5 C5         -13.7100   -30.7350    97.8740 c6         1 U54       0.149300
      6 C6         -14.4000   -31.1190    96.5550 c6         1 U54      -0.082700
      7 C7         -14.5640   -29.9180    95.6400 c3         1 U54       0.160600
      8 O3         -11.9530   -34.0240    98.1350 oh         1 U54      -0.727000
      9 O5         -14.6310   -30.0740    98.7570 oh         1 U54      -0.741000
     10 O7         -13.2740   -29.4480    95.2300 oh         1 U54      -0.675000
     11 O4         -12.7120   -31.6530    99.9010 oh         1 U54      -0.677000
     12 N1         -14.4660   -33.5590    96.1080 n7         1 U54      -0.871400
     13 C13        -15.6660   -33.7040    95.2870 c3         1 U54       0.160800
     14 C14        -16.3710   -35.0220    95.5730 c3         1 U54      -0.079400
     15 C15        -17.6060   -35.2490    94.7050 c3         1 U54      -0.073400
     16 C16        -18.3110   -36.5690    95.0080 c3         1 U54      -0.074400
     17 C17        -19.5190   -36.8350    94.1140 c3         1 U54      -0.073400
     18 C18        -20.2300   -38.1450    94.4430 c3         1 U54      -0.073400
     19 C19        -21.4050   -38.4370    93.5130 c3         1 U54      -0.097400
     20 C20        -22.1180   -39.7290    93.8970 c3         1 U54       0.079600
     21 N49        -23.2200   -40.0450    92.9940 na         1 U54       0.118800
     22 C53        -24.4400   -39.4710    92.9300 cc         1 U54      -0.209000
     23 C52        -25.0770   -40.1010    91.8810 cd         1 U54       0.208300
     24 N51        -24.2100   -41.0170    91.3710 nd         1 U54      -0.363000
     25 N50        -23.0850   -40.9770    92.0450 nc         1 U54      -0.207800
     26 C54        -26.4510   -39.8940    91.3300 c3         1 U54      -0.092700
     27 C55        -27.5360   -39.7520    92.4040 c3         1 U54      -0.071400
     28 C56        -27.7250   -41.0080    93.2510 c3         1 U54      -0.080400
     29 C57        -28.8020   -40.8430    94.3150 c3         1 U54       0.150800
     30 N58        -28.9430   -42.0670    95.1180 n8         1 U54      -1.001200
     31 H1         -13.6990   -32.1140    94.7710 h1         1 U54       0.031700
     32 H2         -11.7190   -31.5980    95.9690 hc         1 U54       0.063200
     33 H3         -11.8070   -33.3410    95.8060 hc         1 U54       0.063200
     34 H4         -11.1480   -32.1230    98.1030 h1         1 U54       0.042700
     35 H5         -14.0320   -32.6860    98.6850 h1         1 U54       0.075700
     36 H6         -12.8640   -30.0690    97.6830 h1         1 U54       0.055700
     37 H7         -15.4090   -31.4340    96.8310 hc         1 U54       0.081700
     38 H8         -15.1050   -29.1220    96.1640 h1         1 U54       0.024700
     39 H9         -15.1540   -30.2090    94.7640 h1         1 U54       0.024700
     40 H10        -11.8020   -34.0960    99.0860 ho         1 U54       0.513000
     41 H11        -14.5340   -29.1210    98.6570 ho         1 U54       0.507000
     42 H12        -13.3990   -28.7000    94.6360 ho         1 U54       0.442000
     43 H13        -13.3800   -31.0850   100.3110 ho         1 U54       0.460000
     44 H16        -15.4300   -33.6360    94.2120 h1         1 U54       0.024700
     45 H17        -16.3440   -32.8740    95.5070 h1         1 U54       0.024700
     46 H18        -16.6520   -35.0520    96.6300 hc         1 U54       0.047700
     47 H19        -15.6630   -35.8450    95.4150 hc         1 U54       0.047700
     48 H20        -18.3090   -34.4210    94.8480 hc         1 U54       0.037200
     49 H21        -17.3160   -35.2290    93.6480 hc         1 U54       0.037200
     50 H22        -18.6290   -36.5750    96.0570 hc         1 U54       0.040200
     51 H23        -17.5960   -37.3920    94.8980 hc         1 U54       0.040200
     52 H24        -19.1980   -36.8520    93.0670 hc         1 U54       0.040200
     53 H25        -20.2300   -36.0060    94.2050 hc         1 U54       0.040200
     54 H26        -20.5860   -38.1140    95.4780 hc         1 U54       0.042200
     55 H27        -19.5130   -38.9720    94.3870 hc         1 U54       0.042200
     56 H28        -21.0540   -38.5180    92.4810 hc         1 U54       0.055200
     57 H29        -22.1190   -37.6090    93.5470 hc         1 U54       0.055200
     58 H30        -22.5250   -39.6620    94.9060 h1         1 U54       0.071700
     59 H31        -21.4370   -40.5780    93.8580 h1         1 U54       0.071700
     60 H32        -24.7470   -38.7000    93.6130 h4         1 U54       0.163000
     61 H33        -26.6830   -40.7380    90.6760 hc         1 U54       0.058200
     62 H34        -26.4560   -39.0000    90.6990 hc         1 U54       0.058200
     63 H35        -27.2940   -38.9050    93.0550 hc         1 U54       0.036200
     64 H36        -28.4790   -39.5010    91.9110 hc         1 U54       0.036200
     65 H37        -27.9890   -41.8480    92.5980 hc         1 U54       0.051700
     66 H38        -26.7840   -41.2760    93.7400 hc         1 U54       0.051700
     67 H39        -28.5210   -40.0290    94.9900 h1         1 U54       0.024200
     68 H40        -29.7420   -40.5430    93.8310 h1         1 U54       0.024200
     69 H41        -29.6570   -41.9320    95.8270 hn         1 U54       0.392000
     70 H42        -29.2790   -42.8220    94.5260 hn         1 U54       0.392000
     71 H14        -13.8570   -34.3490    95.9260 hn         1 U54       0.424000
@<TRIPOS>BOND
     1     1     2 1   
     2     1     6 1   
     3     1    12 1   
     4     1    31 1   
     5     2     3 1   
     6     2    32 1   
     7     2    33 1   
     8     3     4 1   
     9     3     8 1   
    10     3    34 1   
    11     4     5 1   
    12     4    11 1   
    13     4    35 1   
    14     5     6 1   
    15     5     9 1   
    16     5    36 1   
    17     6     7 1   
    18     6    37 1   
    19     7    10 1   
    20     7    38 1   
    21     7    39 1   
    22     8    40 1   
    23     9    41 1   
    24    10    42 1   
    25    11    43 1   
    26    12    13 1   
    27    12    71 1   
    28    13    14 1   
    29    13    44 1   
    30    13    45 1   
    31    14    15 1   
    32    14    46 1   
    33    14    47 1   
    34    15    16 1   
    35    15    48 1   
    36    15    49 1   
    37    16    17 1   
    38    16    50 1   
    39    16    51 1   
    40    17    18 1   
    41    17    52 1   
    42    17    53 1   
    43    18    19 1   
    44    18    54 1   
    45    18    55 1   
    46    19    20 1   
    47    19    56 1   
    48    19    57 1   
    49    20    21 1   
    50    20    58 1   
    51    20    59 1   
    52    21    22 1   
    53    21    25 1   
    54    22    23 2   
    55    22    60 1   
    56    23    24 1   
    57    23    26 1   
    58    24    25 2   
    59    26    27 1   
    60    26    61 1   
    61    26    62 1   
    62    27    28 1   
    63    27    63 1   
    64    27    64 1   
    65    28    29 1   
    66    28    65 1   
    67    28    66 1   
    68    29    30 1   
    69    29    67 1   
    70    29    68 1   
    71    30    69 1   
    72    30    70 1   
@<TRIPOS>SUBSTRUCTURE
     1 U54         1 TEMP              0 ****  ****    0 ROOT
