@<TRIPOS>MOLECULE
U55
   29    30     1     0     0
SMALL
No Charge or Current Charge


@<TRIPOS>ATOM
      1 N17          0.5910     0.2470     6.3980 nv         1 U55      -1.070900
      2 C11          0.0620     0.0550     5.1690 ca         1 U55       0.406900
      3 N12         -1.2390    -0.2520     5.1270 nb         1 U55      -0.279000
      4 C13         -1.7580    -0.4460     3.8980 ca         1 U55       0.197900
      5 N14         -1.0950    -0.3570     2.7270 nb         1 U55      -0.274000
      6 C16          0.8430     0.1730     4.0240 ca         1 U55      -0.368000
      7 C15          0.2070    -0.0360     2.8000 ca         1 U55       0.407900
      8 N18          0.9490     0.0410     1.6320 nu         1 U55      -0.934900
      9 C01          0.6330     0.0390     0.2710 ca         1 U55       0.376000
     10 C06         -0.6070     0.4890    -0.2130 ca         1 U55      -0.184500
     11 C05         -0.8800     0.4860    -1.5910 ca         1 U55       0.024000
     12 C02          1.6090    -0.3920    -0.6400 ca         1 U55      -0.184500
     13 C03          1.3480    -0.4020    -2.0210 ca         1 U55       0.024000
     14 C04          0.0980     0.0360    -2.5000 ca         1 U55      -0.319500
     15 S07         -0.2510     0.0300    -4.2560 sy         1 U55       1.132600
     16 O08          0.7240    -0.8010    -4.9580 o          1 U55      -0.548000
     17 O09         -1.6920    -0.0570    -4.4940 o          1 U55      -0.548000
     18 N10          0.1610     1.5550    -4.6750 n8         1 U55      -0.999100
     19 H171        -0.0460     0.3600     7.1830 hn         1 U55       0.493500
     20 H172         1.4960     0.7050     6.4770 hn         1 U55       0.493500
     21 H131        -2.8150    -0.7000     3.8450 h5         1 U55       0.048100
     22 H161         1.8980     0.4190     4.0820 ha         1 U55       0.127000
     23 H181         1.9510     0.0250     1.8090 hn         1 U55       0.497000
     24 H061        -1.3620     0.8630     0.4690 ha         1 U55       0.136500
     25 H051        -1.8480     0.8390    -1.9470 ha         1 U55       0.135500
     26 H021         2.5750    -0.7330    -0.2800 ha         1 U55       0.136500
     27 H031         2.1190    -0.7500    -2.7080 ha         1 U55       0.135500
     28 H101         0.7910     1.3770    -5.4530 hn         1 U55       0.469000
     29 H102         0.7790     1.8270    -3.9150 hn         1 U55       0.469000
@<TRIPOS>BOND
     1     1     2 1   
     2     1    19 1   
     3     1    20 1   
     4     2     3 ar  
     5     2     6 ar  
     6     3     4 ar  
     7     4     5 ar  
     8     4    21 1   
     9     5     7 ar  
    10     6     7 ar  
    11     6    22 1   
    12     7     8 1   
    13     8     9 1   
    14     8    23 1   
    15     9    10 ar  
    16     9    12 ar  
    17    10    11 ar  
    18    10    24 1   
    19    11    14 ar  
    20    11    25 1   
    21    12    13 ar  
    22    12    26 1   
    23    13    14 ar  
    24    13    27 1   
    25    14    15 1   
    26    15    16 2   
    27    15    17 2   
    28    15    18 1   
    29    18    28 1   
    30    18    29 1   
@<TRIPOS>SUBSTRUCTURE
     1 U55         1 TEMP              0 ****  ****    0 ROOT
