@<TRIPOS>MOLECULE
U55
   29    30     1     0     0
SMALL
abcg2


@<TRIPOS>ATOM
      1 N17          0.4910     0.0140     6.3910 nv         1 U55      -1.070900
      2 C11          0.0010     0.0730     5.1420 ca         1 U55       0.406900
      3 N12         -1.3300     0.2180     5.0130 nb         1 U55      -0.279000
      4 C13         -1.7950     0.2480     3.7830 ca         1 U55       0.197900
      5 N14         -1.1170     0.1530     2.6510 nb         1 U55      -0.274000
      6 C16          0.8250    -0.0350     4.0190 ca         1 U55      -0.368000
      7 C15          0.2050     0.0100     2.7760 ca         1 U55       0.407900
      8 N18          0.9850    -0.0990     1.6560 nu         1 U55      -0.934900
      9 C01          0.6740    -0.0680     0.3120 ca         1 U55       0.376000
     10 C06         -0.6040     0.1640    -0.2160 ca         1 U55      -0.184500
     11 C05         -0.7930     0.1810    -1.5840 ca         1 U55       0.024000
     12 C02          1.7390    -0.2820    -0.5760 ca         1 U55      -0.184500
     13 C03          1.5440    -0.2680    -1.9410 ca         1 U55       0.024000
     14 C04          0.2730    -0.0320    -2.4480 ca         1 U55      -0.319500
     15 S07         -0.0010    -0.0160    -4.1850 sy         1 U55       1.132600
     16 O08          1.1670    -0.6030    -4.8310 o          1 U55      -0.548000
     17 O09         -1.3080    -0.5840    -4.4870 o          1 U55      -0.548000
     18 N10         -0.1480     1.6070    -4.4770 n8         1 U55      -0.999100
     19 H171        -0.1110     0.2540     7.1610 hn         1 U55       0.493500
     20 H172         1.4810     0.0610     6.5530 hn         1 U55       0.493500
     21 H131        -2.8690     0.3640     3.6810 h5         1 U55       0.048100
     22 H161         1.8970    -0.1440     4.1170 ha         1 U55       0.127000
     23 H181         1.9650    -0.2340     1.8490 hn         1 U55       0.497000
     24 H061        -1.4430     0.3230     0.4410 ha         1 U55       0.136500
     25 H051        -1.7880     0.3630    -1.9690 ha         1 U55       0.135500
     26 H021         2.7330    -0.4670    -0.1880 ha         1 U55       0.136500
     27 H031         2.3860    -0.4420    -2.5970 ha         1 U55       0.135500
     28 H101        -0.5570     1.7820    -5.3900 hn         1 U55       0.469000
     29 H102         0.7350     2.0990    -4.3940 hn         1 U55       0.469000
@<TRIPOS>BOND
     1     1     2 1   
     2     1    19 1   
     3     1    20 1   
     4     2     3 ar  
     5     2     6 ar  
     6     3     4 ar  
     7     4     5 ar  
     8     4    21 1   
     9     5     7 ar  
    10     6     7 ar  
    11     6    22 1   
    12     7     8 1   
    13     8     9 1   
    14     8    23 1   
    15     9    10 ar  
    16     9    12 ar  
    17    10    11 ar  
    18    10    24 1   
    19    11    14 ar  
    20    11    25 1   
    21    12    13 ar  
    22    12    26 1   
    23    13    14 ar  
    24    13    27 1   
    25    14    15 1   
    26    15    16 2   
    27    15    17 2   
    28    15    18 1   
    29    18    28 1   
    30    18    29 1   
@<TRIPOS>SUBSTRUCTURE
     1 U55         1 TEMP              0 ****  ****    0 ROOT
