@<TRIPOS>MOLECULE
U56
   31    32     1     0     0
SMALL
abcg2


@<TRIPOS>ATOM
      1 C10        143.1610   158.7540   140.2230 c5         1 U56       0.328700
      2 C02        141.1860   158.7250   138.7740 c          1 U56       0.707400
      3 C04        139.0520   158.5670   139.6570 cc         1 U56       0.758500
      4 C07        139.5270   158.5640   140.9950 cc         1 U56      -0.471600
      5 C08        140.8710   158.6280   141.1460 cd         1 U56       0.025600
      6 C12        144.2120   159.3270   142.2180 c5         1 U56       0.130300
      7 C13        143.9250   159.2030   143.6940 c3         1 U56       0.157600
      8 C15        143.7660   160.6230   141.5380 c5         1 U56       0.094300
      9 C17        143.6970   160.1830   140.0780 c5         1 U56       0.145300
     10 N03        139.8510   158.6360   138.6140 nd         1 U56      -0.757100
     11 N05        137.7300   158.5450   139.3830 nu         1 U56      -0.657900
     12 N09        141.6960   158.7020   140.0830 n          1 U56      -0.332000
     13 O06        136.8710   158.1120   140.3550 oh         1 U56      -0.401300
     14 O11        143.5330   158.3040   141.4900 os         1 U56      -0.445000
     15 O14        142.5610   159.4360   143.9460 oh         1 U56      -0.731000
     16 O16        144.6560   161.6920   141.6850 oh         1 U56      -0.713000
     17 O18        144.9720   160.0880   139.5010 oh         1 U56      -0.705000
     18 H101       143.5750   158.1030   139.4520 h2         1 U56       0.129700
     19 H071       138.8790   158.5070   141.8540 ha         1 U56       0.214000
     20 H081       141.3260   158.6250   142.1260 h4         1 U56       0.232000
     21 H121       145.2960   159.2130   142.0910 h1         1 U56       0.077700
     22 H131       144.2410   158.2100   144.0380 h1         1 U56       0.035200
     23 H132       144.5680   159.9310   144.2080 h1         1 U56       0.035200
     24 H151       142.7560   160.8920   141.8720 h1         1 U56       0.066700
     25 H171       143.0280   160.8160   139.4860 h1         1 U56       0.081700
     26 H051       137.4510   158.2830   138.4460 hn         1 U56       0.517000
     27 H061       136.3660   158.8910   140.6220 ho         1 U56       0.458000
     28 H141       142.3930   159.2970   144.8830 ho         1 U56       0.513000
     29 H161       144.5500   162.0760   142.5610 ho         1 U56       0.518000
     30 H181       145.4270   160.9280   139.6300 ho         1 U56       0.528000
     31 O01        141.9680   158.8190   137.8380 o          1 U56      -0.542000
@<TRIPOS>BOND
     1     1     9 1   
     2     1    12 1   
     3     1    14 1   
     4     1    18 1   
     5     2    10 1   
     6     2    12 1   
     7     2    31 2   
     8     3     4 1   
     9     3    10 2   
    10     3    11 1   
    11     4     5 2   
    12     4    19 1   
    13     5    12 1   
    14     5    20 1   
    15     6     7 1   
    16     6     8 1   
    17     6    14 1   
    18     6    21 1   
    19     7    15 1   
    20     7    22 1   
    21     7    23 1   
    22     8     9 1   
    23     8    16 1   
    24     8    24 1   
    25     9    17 1   
    26     9    25 1   
    27    11    13 1   
    28    11    26 1   
    29    13    27 1   
    30    15    28 1   
    31    16    29 1   
    32    17    30 1   
@<TRIPOS>SUBSTRUCTURE
     1 U56         1 TEMP              0 ****  ****    0 ROOT
