@<TRIPOS>MOLECULE
U56
   31    32     1     0     0
SMALL
No Charge or Current Charge


@<TRIPOS>ATOM
      1 C10        143.1190   158.7130   140.2370 c5         1 U56       0.328700
      2 C02        141.1690   158.4330   138.7260 c          1 U56       0.707400
      3 C04        138.9830   158.5950   139.4960 cc         1 U56       0.758500
      4 C07        139.4080   158.8510   140.8230 cc         1 U56      -0.471600
      5 C08        140.7570   158.8890   141.0850 cd         1 U56       0.025600
      6 C12        144.2720   159.2790   142.2000 c5         1 U56       0.130300
      7 C13        144.2320   159.1420   143.7500 c3         1 U56       0.157600
      8 C15        143.7270   160.6190   141.6120 c5         1 U56       0.094300
      9 C17        143.5820   160.2180   140.1160 c5         1 U56       0.145300
     10 N03        139.7930   158.4010   138.5020 nd         1 U56      -0.757100
     11 N05        137.6490   158.5610   139.2070 nu         1 U56      -0.657900
     12 N09        141.6440   158.6880   140.0280 n          1 U56      -0.332000
     13 O06        136.7170   157.9750   140.1940 oh         1 U56      -0.401300
     14 O11        143.4500   158.2660   141.5770 os         1 U56      -0.445000
     15 O14        142.9340   159.4700   144.2870 oh         1 U56      -0.731000
     16 O16        144.6360   161.7300   141.7590 oh         1 U56      -0.713000
     17 O18        144.8630   160.3750   139.4890 oh         1 U56      -0.705000
     18 H101       143.5960   158.0790   139.4790 h2         1 U56       0.129700
     19 H071       138.6700   159.0080   141.5990 ha         1 U56       0.214000
     20 H081       141.2040   159.0610   142.0630 h4         1 U56       0.232000
     21 H121       145.3110   159.1150   141.8780 h1         1 U56       0.077700
     22 H131       144.5100   158.1130   144.0160 h1         1 U56       0.035200
     23 H132       144.9940   159.8080   144.1760 h1         1 U56       0.035200
     24 H151       142.7430   160.8640   142.0360 h1         1 U56       0.066700
     25 H171       142.8280   160.8380   139.6090 h1         1 U56       0.081700
     26 H051       137.4890   158.1950   138.2630 hn         1 U56       0.517000
     27 H061       136.1310   158.7080   140.5100 ho         1 U56       0.458000
     28 H141       142.9680   159.2840   145.2560 ho         1 U56       0.513000
     29 H161       144.5020   162.1000   142.6660 ho         1 U56       0.518000
     30 H181       145.2930   161.0570   140.0680 ho         1 U56       0.528000
     31 O01        141.9140   158.2470   137.7800 o          1 U56      -0.542000
@<TRIPOS>BOND
     1     1     9 1   
     2     1    12 1   
     3     1    14 1   
     4     1    18 1   
     5     2    10 1   
     6     2    12 1   
     7     2    31 2   
     8     3     4 1   
     9     3    10 2   
    10     3    11 1   
    11     4     5 2   
    12     4    19 1   
    13     5    12 1   
    14     5    20 1   
    15     6     7 1   
    16     6     8 1   
    17     6    14 1   
    18     6    21 1   
    19     7    15 1   
    20     7    22 1   
    21     7    23 1   
    22     8     9 1   
    23     8    16 1   
    24     8    24 1   
    25     9    17 1   
    26     9    25 1   
    27    11    13 1   
    28    11    26 1   
    29    13    27 1   
    30    15    28 1   
    31    16    29 1   
    32    17    30 1   
@<TRIPOS>SUBSTRUCTURE
     1 U56         1 TEMP              0 ****  ****    0 ROOT
