@<TRIPOS>MOLECULE
U57
   41    42     1     0     0
SMALL
abcg2


@<TRIPOS>ATOM
      1 C11        139.1900    18.2290    22.4340 c3         1 U57      -0.071400
      2 C12        138.1920    18.6580    21.3660 c3         1 U57      -0.075400
      3 C13        140.5820    14.6890    23.2550 c3         1 U57       0.149600
      4 C15        137.8910    20.1490    21.4070 c3         1 U57      -0.089100
      5 C16        141.7520    16.8850    23.4980 c3         1 U57      -0.107100
      6 C01        137.0180    15.9960    27.0910 ca         1 U57       0.095000
      7 C02        138.2620    16.4550    26.6230 ca         1 U57       0.062000
      8 C03        138.6350    16.0300    25.2880 ca         1 U57       0.467900
      9 C07        136.6600    14.8870    25.1570 ca         1 U57       0.442900
     10 C09        140.3890    16.1910    23.4930 c3         1 U57       0.268200
     11 C10        139.5040    16.7400    22.3610 c3         1 U57      -0.090400
     12 C18        138.7240    17.6260    28.5240 ca         1 U57       0.269900
     13 C19        137.4990    17.2200    29.0700 ca         1 U57       0.157000
     14 C20        136.6390    16.4120    28.3850 ca         1 U57      -0.144000
     15 F21        137.1830    17.6500    30.2950 f          1 U57      -0.169000
     16 N04        136.2120    15.2040    26.3600 nb         1 U57      -0.302000
     17 N05        137.8270    15.2640    24.5910 nb         1 U57      -0.358000
     18 N06        139.8010    16.4490    24.8060 nu         1 U57      -0.892100
     19 N08        135.8730    14.1180    24.3830 nv         1 U57      -1.067900
     20 N17        139.0820    17.2410    27.3240 nb         1 U57      -0.622000
     21 H1         140.1060    18.8170    22.3220 hc         1 U57       0.041200
     22 H2         138.7860    18.4780    23.4200 hc         1 U57       0.041200
     23 H3         137.2640    18.0920    21.4920 hc         1 U57       0.037700
     24 H4         138.5780    18.3890    20.3780 hc         1 U57       0.037700
     25 H5         139.6070    14.2150    23.1050 h1         1 U57       0.033700
     26 H6         141.1420    14.5820    22.3160 h1         1 U57       0.033700
     27 H7         137.1600    20.4330    20.6490 hc         1 U57       0.032367
     28 H8         137.4890    20.4420    22.3790 hc         1 U57       0.032367
     29 H9         138.7930    20.7380    21.2340 hc         1 U57       0.032367
     30 H10        142.4210    16.4400    24.2350 hc         1 U57       0.049367
     31 H11        142.2190    16.7930    22.5170 hc         1 U57       0.049367
     32 H12        141.6610    17.9470    23.7270 hc         1 U57       0.049367
     33 H13        138.5680    16.1780    22.3460 hc         1 U57       0.055200
     34 H14        140.0080    16.5210    21.4140 hc         1 U57       0.055200
     35 H15        139.3960    18.2650    29.0860 h4         1 U57       0.036100
     36 H16        135.6940    16.0970    28.8080 ha         1 U57       0.151000
     37 H17        140.3370    17.0150    25.4480 hn         1 U57       0.524000
     38 H18        136.2390    13.7340    23.5310 hn         1 U57       0.497500
     39 H19        135.0570    13.6880    24.7820 hn         1 U57       0.497500
     40 H20        141.3370    13.1730    24.1880 ho         1 U57       0.445000
     41 O14        141.2700    14.1190    24.3410 oh         1 U57      -0.656000
@<TRIPOS>BOND
     1     1     2 1   
     2     1    11 1   
     3     1    21 1   
     4     1    22 1   
     5     2     4 1   
     6     2    23 1   
     7     2    24 1   
     8     3    10 1   
     9     3    25 1   
    10     3    26 1   
    11     3    41 1   
    12     4    27 1   
    13     4    28 1   
    14     4    29 1   
    15     5    10 1   
    16     5    30 1   
    17     5    31 1   
    18     5    32 1   
    19     6     7 ar  
    20     6    14 ar  
    21     6    16 ar  
    22     7     8 ar  
    23     7    20 ar  
    24     8    17 ar  
    25     8    18 1   
    26     9    16 ar  
    27     9    17 ar  
    28     9    19 1   
    29    10    11 1   
    30    10    18 1   
    31    11    33 1   
    32    11    34 1   
    33    12    13 ar  
    34    12    20 ar  
    35    12    35 1   
    36    13    14 ar  
    37    13    15 1   
    38    14    36 1   
    39    18    37 1   
    40    19    38 1   
    41    19    39 1   
    42    40    41 1   
@<TRIPOS>SUBSTRUCTURE
     1 U57         1 TEMP              0 ****  ****    0 ROOT
