@<TRIPOS>MOLECULE
U57
   41    42     1     0     0
SMALL
No Charge or Current Charge


@<TRIPOS>ATOM
      1 C11        139.1440    18.2950    22.1260 c3         1 U57      -0.071400
      2 C12        138.3220    18.5900    20.8530 c3         1 U57      -0.075400
      3 C13        140.5160    14.8160    23.5550 c3         1 U57       0.149600
      4 C15        137.9540    20.0790    20.7030 c3         1 U57      -0.089100
      5 C16        141.6900    17.0820    23.5740 c3         1 U57      -0.107100
      6 C01        137.0860    15.8390    27.3160 ca         1 U57       0.095000
      7 C02        138.2790    16.4140    26.7860 ca         1 U57       0.062000
      8 C03        138.4530    16.2920    25.3760 ca         1 U57       0.467900
      9 C07        136.4800    15.1920    25.2050 ca         1 U57       0.442900
     10 C09        140.3060    16.3800    23.5530 c3         1 U57       0.268200
     11 C10        139.5120    16.7930    22.2690 c3         1 U57      -0.090400
     12 C18        138.9560    17.1110    28.9150 ca         1 U57       0.269900
     13 C19        137.8020    16.5660    29.5100 ca         1 U57       0.157000
     14 C20        136.8540    15.9210    28.7010 ca         1 U57      -0.144000
     15 F21        137.6040    16.6600    30.8450 f          1 U57      -0.169000
     16 N04        136.1930    15.2270    26.5100 nb         1 U57      -0.302000
     17 N05        137.5500    15.6840    24.5870 nb         1 U57      -0.358000
     18 N06        139.5920    16.8320    24.7700 nu         1 U57      -0.892100
     19 N08        135.5770    14.5790    24.4150 nv         1 U57      -1.067900
     20 N17        139.2000    17.0430    27.5820 nb         1 U57      -0.622000
     21 H1         140.0570    18.9020    22.1000 hc         1 U57       0.041200
     22 H2         138.5670    18.6190    23.0010 hc         1 U57       0.041200
     23 H3         137.3990    17.9960    20.8690 hc         1 U57       0.037700
     24 H4         138.8910    18.2740    19.9700 hc         1 U57       0.037700
     25 H5         139.5420    14.3200    23.4540 h1         1 U57       0.033700
     26 H6         141.0990    14.5430    22.6650 h1         1 U57       0.033700
     27 H7         137.3710    20.2390    19.7880 hc         1 U57       0.032367
     28 H8         137.3520    20.4180    21.5560 hc         1 U57       0.032367
     29 H9         138.8570    20.6990    20.6480 hc         1 U57       0.032367
     30 H10        142.2840    16.7660    24.4400 hc         1 U57       0.049367
     31 H11        142.2610    16.8390    22.6700 hc         1 U57       0.049367
     32 H12        141.5900    18.1720    23.6290 hc         1 U57       0.049367
     33 H13        138.5890    16.2050    22.2090 hc         1 U57       0.055200
     34 H14        140.1010    16.4990    21.3910 hc         1 U57       0.055200
     35 H15        139.7060    17.6170    29.5220 h4         1 U57       0.036100
     36 H16        135.9570    15.4950    29.1410 ha         1 U57       0.151000
     37 H17        140.1890    17.2430    25.4880 hn         1 U57       0.524000
     38 H18        135.8630    14.3280    23.4730 hn         1 U57       0.497500
     39 H19        134.8770    13.9870    24.8540 hn         1 U57       0.497500
     40 H20        141.2390    13.3580    24.6670 ho         1 U57       0.445000
     41 O14        141.1860    14.3360    24.7420 oh         1 U57      -0.656000
@<TRIPOS>BOND
     1     1     2 1   
     2     1    11 1   
     3     1    21 1   
     4     1    22 1   
     5     2     4 1   
     6     2    23 1   
     7     2    24 1   
     8     3    10 1   
     9     3    25 1   
    10     3    26 1   
    11     3    41 1   
    12     4    27 1   
    13     4    28 1   
    14     4    29 1   
    15     5    10 1   
    16     5    30 1   
    17     5    31 1   
    18     5    32 1   
    19     6     7 ar  
    20     6    14 ar  
    21     6    16 ar  
    22     7     8 ar  
    23     7    20 ar  
    24     8    17 ar  
    25     8    18 1   
    26     9    16 ar  
    27     9    17 ar  
    28     9    19 1   
    29    10    11 1   
    30    10    18 1   
    31    11    33 1   
    32    11    34 1   
    33    12    13 ar  
    34    12    20 ar  
    35    12    35 1   
    36    13    14 ar  
    37    13    15 1   
    38    14    36 1   
    39    18    37 1   
    40    19    38 1   
    41    19    39 1   
    42    40    41 1   
@<TRIPOS>SUBSTRUCTURE
     1 U57         1 TEMP              0 ****  ****    0 ROOT
