@<TRIPOS>MOLECULE
U58
   25    26     1     0     0
SMALL
No Charge or Current Charge


@<TRIPOS>ATOM
      1 C02          7.3320    -3.0200     5.9970 c          1 U58       0.717000
      2 C04          7.3830    -4.4120     5.3530 c3         1 U58      -0.213400
      3 C05          6.2370    -5.3000     5.8850 c3         1 U58       0.073600
      4 C07          3.4180    -5.9120     5.9770 ca         1 U58       0.217300
      5 C09          3.0270    -7.7400     7.3120 ca         1 U58       0.142900
      6 C11          1.1780    -6.7790     6.3320 ca         1 U58       0.031000
      7 C12          2.0260    -5.8210     5.7190 ca         1 U58      -0.132000
      8 C13          1.4720    -4.8220     4.8860 ca         1 U58      -0.048000
      9 C14          0.0850    -4.7790     4.6650 ca         1 U58      -0.142000
     10 C15         -0.7550    -5.7260     5.2700 ca         1 U58      -0.094000
     11 C16         -0.2090    -6.7190     6.0980 ca         1 U58      -0.110000
     12 N08          3.9120    -6.8780     6.7780 nb         1 U58      -0.239000
     13 N10          1.6920    -7.7380     7.1300 nb         1 U58      -0.217000
     14 O01          6.7580    -2.1220     5.4010 o          1 U58      -0.726000
     15 O03          7.8640    -2.8770     7.0870 o          1 U58      -0.726000
     16 S06          4.5860    -4.7510     5.2530 ss         1 U58      -0.223300
     17 H1           7.2590    -4.3530     4.2650 hc         1 U58       0.033700
     18 H2           8.2970    -4.9300     5.6640 hc         1 U58       0.033700
     19 H3           6.4020    -6.3350     5.5590 h1         1 U58       0.061200
     20 H4           6.2300    -5.2830     6.9830 h1         1 U58       0.061200
     21 H5           3.4310    -8.5180     7.9580 h5         1 U58       0.031100
     22 H6           2.0990    -4.0760     4.4040 ha         1 U58       0.140000
     23 H7          -0.3380    -4.0090     4.0230 ha         1 U58       0.109000
     24 H8          -1.8280    -5.6910     5.0970 ha         1 U58       0.102000
     25 H9          -0.8670    -7.4490     6.5630 ha         1 U58       0.120000
@<TRIPOS>BOND
     1     1     2 1   
     2     1    14 1   
     3     1    15 1   
     4     2     3 1   
     5     2    17 1   
     6     2    18 1   
     7     3    16 1   
     8     3    19 1   
     9     3    20 1   
    10     4     7 ar  
    11     4    12 ar  
    12     4    16 1   
    13     5    12 ar  
    14     5    13 ar  
    15     5    21 1   
    16     6     7 ar  
    17     6    11 ar  
    18     6    13 ar  
    19     7     8 ar  
    20     8     9 ar  
    21     8    22 1   
    22     9    10 ar  
    23     9    23 1   
    24    10    11 ar  
    25    10    24 1   
    26    11    25 1   
@<TRIPOS>SUBSTRUCTURE
     1 U58         1 TEMP              0 ****  ****    0 ROOT
