@<TRIPOS>MOLECULE
U58
   25    26     1     0     0
SMALL
bcc


@<TRIPOS>ATOM
      1 C02          7.3540    -3.1170     5.4890 c          1 U58       0.927600
      2 C04          7.2080    -4.6430     5.6320 c3         1 U58      -0.213400
      3 C05          6.0950    -5.0880     6.5590 c3         1 U58       0.025700
      4 C07          3.4220    -5.8290     6.2480 ca         1 U58       0.545600
      5 C09          2.9530    -7.8910     7.0870 ca         1 U58       0.668900
      6 C11          1.2390    -6.8340     6.0650 ca         1 U58       0.424600
      7 C12          2.0700    -5.7270     5.7850 ca         1 U58      -0.262600
      8 C13          1.5420    -4.6220     5.0870 ca         1 U58      -0.066000
      9 C14          0.2310    -4.6220     4.6880 ca         1 U58      -0.160000
     10 C15         -0.5970    -5.7230     4.9710 ca         1 U58      -0.112000
     11 C16         -0.1060    -6.8100     5.6450 ca         1 U58      -0.193300
     12 N08          3.8350    -6.8950     6.8850 nb         1 U58      -0.765000
     13 N10          1.7050    -7.9250     6.7280 nb         1 U58      -0.743000
     14 O01          6.3930    -2.4300     5.8950 o          1 U58      -0.831300
     15 O03          8.4040    -2.7050     4.9640 o          1 U58      -0.831300
     16 S06          4.4880    -4.4740     5.9660 ss         1 U58      -0.175400
     17 H1           7.0530    -5.0790     4.6390 hc         1 U58       0.033700
     18 H2           8.1490    -5.0670     5.9970 hc         1 U58       0.033700
     19 H3           6.0290    -6.1730     6.6070 h1         1 U58       0.061200
     20 H4           6.2460    -4.7180     7.5730 h1         1 U58       0.061200
     21 H5           3.3420    -8.7560     7.6150 h5         1 U58       0.031100
     22 H6           2.1680    -3.7680     4.8620 ha         1 U58       0.158000
     23 H7          -0.1700    -3.7720     4.1530 ha         1 U58       0.127000
     24 H8          -1.6310    -5.7090     4.6500 ha         1 U58       0.120000
     25 H9          -0.7330    -7.6640     5.8680 ha         1 U58       0.138000
@<TRIPOS>BOND
     1     1     2 1   
     2     1    14 1   
     3     1    15 1   
     4     2     3 1   
     5     2    17 1   
     6     2    18 1   
     7     3    16 1   
     8     3    19 1   
     9     3    20 1   
    10     4     7 ar  
    11     4    12 ar  
    12     4    16 1   
    13     5    12 ar  
    14     5    13 ar  
    15     5    21 1   
    16     6     7 ar  
    17     6    11 ar  
    18     6    13 ar  
    19     7     8 ar  
    20     8     9 ar  
    21     8    22 1   
    22     9    10 ar  
    23     9    23 1   
    24    10    11 ar  
    25    10    24 1   
    26    11    25 1   
@<TRIPOS>SUBSTRUCTURE
     1 U58         1 TEMP              0 ****  ****    0 ROOT
