@<TRIPOS>MOLECULE
U59
   60    64     1     0     0
SMALL
No Charge or Current Charge


@<TRIPOS>ATOM
      1 C10        -19.8730    -4.0280     5.4570 c3         1 U59       0.049600
      2 C15        -15.5370    -3.6290     9.6790 ca         1 U59      -0.085000
      3 C17        -13.8770    -3.2480    11.5140 cc         1 U59      -0.087400
      4 C21        -13.7200    -0.1670     8.5920 c3         1 U59       0.194600
      5 C22        -13.1980    -0.8920     7.3580 cx         1 U59      -0.134700
      6 C24        -12.4900    -0.1410     6.2530 cx         1 U59      -0.121400
      7 C26        -15.1630     0.7100    12.5530 ca         1 U59       0.035000
      8 C02        -12.7060    -5.8300    10.9710 c          1 U59       0.565600
      9 C03        -13.8620    -5.3280    10.1510 ca         1 U59      -0.163600
     10 C04        -14.3850    -6.1080     9.0990 ca         1 U59      -0.047000
     11 C05        -15.4720    -5.6460     8.3390 ca         1 U59      -0.129000
     12 C06        -16.0720    -4.4020     8.6270 ca         1 U59      -0.075500
     13 C07        -17.1970    -3.8840     7.8310 cc         1 U59       0.248500
     14 C08        -17.8890    -4.6470     6.9440 cd         1 U59      -0.169000
     15 C11        -21.1870    -4.5500     6.0680 c3         1 U59       0.161600
     16 C16        -14.4310    -4.0730    10.4350 ca         1 U59       0.035200
     17 C18        -14.3160    -1.8920    11.8530 ca         1 U59      -0.088800
     18 C19        -14.2220    -0.8390    10.9160 ca         1 U59       0.215100
     19 C23        -11.7150    -1.0900     7.1380 cx         1 U59      -0.121400
     20 C25        -14.6480     0.4580    11.2710 ca         1 U59      -0.221000
     21 C27        -15.2560    -0.3370    13.4890 ca         1 U59      -0.325500
     22 C30        -14.4340     0.3930    16.0760 c3         1 U59      -0.343100
     23 C32        -14.8290    -1.6330    13.1390 ca         1 U59       0.020000
     24 C33        -12.8180    -3.7400    12.2510 cd         1 U59      -0.031400
     25 F12        -20.9900    -5.7580     6.6560 f          1 U59      -0.267000
     26 N09        -18.8300    -3.7650     6.4600 na         1 U59       0.110800
     27 N13        -18.6890    -2.5310     7.0510 nd         1 U59      -0.205800
     28 N14        -17.6880    -2.6120     7.8920 nc         1 U59      -0.350000
     29 N34        -12.2460    -4.9900    12.0100 n          1 U59      -0.290000
     30 O01        -12.1890    -6.9200    10.7490 o          1 U59      -0.559000
     31 O20        -13.7060    -1.1190     9.6650 os         1 U59      -0.338100
     32 O29        -16.4210    -1.2730    15.6960 o          1 U59      -0.532000
     33 O31        -16.7290     1.1980    15.0970 o          1 U59      -0.532000
     34 S28        -15.9040    -0.0160    15.1380 sy         1 U59       1.091500
     35 H101       -19.4920    -4.7600     4.7350 h1         1 U59       0.082200
     36 H102       -20.0770    -3.0980     4.9130 h1         1 U59       0.082200
     37 H151       -15.9880    -2.6680     9.9110 ha         1 U59       0.139000
     38 H212       -13.0810     0.6940     8.8250 h1         1 U59       0.046700
     39 H211       -14.7400     0.1900     8.3990 h1         1 U59       0.046700
     40 H221       -13.8510    -1.7070     7.0550 hc         1 U59       0.098700
     41 H242       -12.3190     0.9250     6.3840 hc         1 U59       0.074200
     42 H241       -12.6840    -0.4470     5.2270 hc         1 U59       0.074200
     43 H261       -15.4830     1.7190    12.8120 ha         1 U59       0.141000
     44 H041       -13.9480    -7.0760     8.8620 ha         1 U59       0.136000
     45 H051       -15.8370    -6.2680     7.5260 ha         1 U59       0.113000
     46 H081       -17.8080    -5.6810     6.6380 h4         1 U59       0.173000
     47 H112       -21.5630    -3.8450     6.8200 h1         1 U59       0.068200
     48 H111       -21.9440    -4.6640     5.2820 h1         1 U59       0.068200
     49 H232       -11.3900    -2.0350     6.7090 hc         1 U59       0.074200
     50 H231       -11.0290    -0.6610     7.8640 hc         1 U59       0.074200
     51 H251       -14.5830     1.2850    10.5710 ha         1 U59       0.127000
     52 H303       -14.7350     0.6070    17.1060 h1         1 U59       0.100700
     53 H302       -13.7560    -0.4650    16.0390 h1         1 U59       0.100700
     54 H301       -13.9710     1.2730    15.6170 h1         1 U59       0.100700
     55 H321       -14.8990    -2.4480    13.8580 ha         1 U59       0.130000
     56 H331       -12.3420    -3.1850    13.0550 h4         1 U59       0.197000
     57 H352       -10.8760    -4.7330    13.6260 h1         1 U59       0.053033
     58 H353       -11.3670    -6.4170    13.3080 h1         1 U59       0.053033
     59 H351       -10.2240    -5.5940    12.2060 h1         1 U59       0.053033
     60 C35        -11.1110    -5.4590    12.8380 c3         1 U59       0.085300
@<TRIPOS>BOND
     1     1    15 1   
     2     1    26 1   
     3     1    35 1   
     4     1    36 1   
     5     2    12 ar  
     6     2    16 ar  
     7     2    37 1   
     8     3    16 1   
     9     3    17 1   
    10     3    24 2   
    11     4     5 1   
    12     4    31 1   
    13     4    38 1   
    14     4    39 1   
    15     5     6 1   
    16     5    19 1   
    17     5    40 1   
    18     6    19 1   
    19     6    41 1   
    20     6    42 1   
    21     7    20 ar  
    22     7    21 ar  
    23     7    43 1   
    24     8     9 1   
    25     8    29 1   
    26     8    30 2   
    27     9    10 ar  
    28     9    16 ar  
    29    10    11 ar  
    30    10    44 1   
    31    11    12 ar  
    32    11    45 1   
    33    12    13 1   
    34    13    14 2   
    35    13    28 1   
    36    14    26 1   
    37    14    46 1   
    38    15    25 1   
    39    15    47 1   
    40    15    48 1   
    41    17    18 ar  
    42    17    23 ar  
    43    18    20 ar  
    44    18    31 1   
    45    19    49 1   
    46    19    50 1   
    47    20    51 1   
    48    21    23 ar  
    49    21    34 1   
    50    22    34 1   
    51    22    52 1   
    52    22    53 1   
    53    22    54 1   
    54    23    55 1   
    55    24    29 1   
    56    24    56 1   
    57    26    27 1   
    58    27    28 2   
    59    29    60 1   
    60    32    34 2   
    61    33    34 2   
    62    57    60 1   
    63    58    60 1   
    64    59    60 1   
@<TRIPOS>SUBSTRUCTURE
     1 U59         1 TEMP              0 ****  ****    0 ROOT
