@<TRIPOS>MOLECULE
U59
   60    64     1     0     0
SMALL
abcg2


@<TRIPOS>ATOM
      1 C10        -19.7840    -3.8900     5.5600 c3         1 U59       0.049600
      2 C15        -15.4020    -3.6130     9.6890 ca         1 U59      -0.085000
      3 C17        -13.7690    -3.2170    11.5340 cc         1 U59      -0.087400
      4 C21        -13.7810    -0.2850     8.5710 c3         1 U59       0.194600
      5 C22        -13.3640    -1.0480     7.3570 cx         1 U59      -0.134700
      6 C24        -12.7940    -0.2930     6.1870 cx         1 U59      -0.121400
      7 C26        -15.2180     0.7220    12.4230 ca         1 U59       0.035000
      8 C02        -12.6050    -5.7810    11.0020 c          1 U59       0.565600
      9 C03        -13.7240    -5.2820    10.2040 ca         1 U59      -0.163600
     10 C04        -14.2260    -6.0760     9.1620 ca         1 U59      -0.047000
     11 C05        -15.2830    -5.6440     8.3940 ca         1 U59      -0.129000
     12 C06        -15.8880    -4.3970     8.6560 ca         1 U59      -0.075500
     13 C07        -17.0110    -3.9300     7.8470 cc         1 U59       0.248500
     14 C08        -17.7970    -4.6140     6.9390 cd         1 U59      -0.169000
     15 C11        -21.0750    -4.2250     6.2720 c3         1 U59       0.161600
     16 C16        -14.3090    -4.0240    10.4680 ca         1 U59       0.035200
     17 C18        -14.2850    -1.8630    11.8420 ca         1 U59      -0.088800
     18 C19        -14.2030    -0.8280    10.8810 ca         1 U59       0.215100
     19 C23        -11.9030    -1.1730     7.0220 cx         1 U59      -0.121400
     20 C25        -14.6750     0.4520    11.1750 ca         1 U59      -0.221000
     21 C27        -15.3030    -0.2900    13.3680 ca         1 U59      -0.325500
     22 C30        -14.6370     0.0580    16.0730 c3         1 U59      -0.343100
     23 C32        -14.8410    -1.5750    13.0790 ca         1 U59       0.020000
     24 C33        -12.7460    -3.7230    12.2640 cd         1 U59      -0.031400
     25 F12        -20.9560    -5.4740     6.9050 f          1 U59      -0.267000
     26 N09        -18.6760    -3.7010     6.4850 na         1 U59       0.110800
     27 N13        -18.4690    -2.5090     7.0690 nd         1 U59      -0.205800
     28 N14        -17.4660    -2.6420     7.8880 nc         1 U59      -0.350000
     29 N34        -12.1870    -4.9540    12.0280 n          1 U59      -0.290000
     30 O01        -12.0450    -6.8650    10.8100 o          1 U59      -0.559000
     31 O20        -13.6340    -1.1610     9.7080 os         1 U59      -0.338100
     32 O29        -16.8790    -1.0630    15.3190 o          1 U59      -0.532000
     33 O31        -16.5920     1.3780    14.9210 o          1 U59      -0.532000
     34 S28        -16.0140     0.0460    14.9500 sy         1 U59       1.091500
     35 H101       -19.5120    -4.6830     4.8660 h1         1 U59       0.082200
     36 H102       -19.9150    -2.9630     5.0020 h1         1 U59       0.082200
     37 H151       -15.8750    -2.6650     9.8960 ha         1 U59       0.139000
     38 H212       -13.1570     0.6020     8.7120 h1         1 U59       0.046700
     39 H211       -14.8270     0.0260     8.5030 h1         1 U59       0.046700
     40 H221       -13.9920    -1.9010     7.1270 hc         1 U59       0.098700
     41 H242       -12.6820     0.7790     6.2880 hc         1 U59       0.074200
     42 H241       -13.0630    -0.6280     5.1950 hc         1 U59       0.074200
     43 H261       -15.5770     1.7140    12.6560 ha         1 U59       0.141000
     44 H041       -13.7630    -7.0330     8.9690 ha         1 U59       0.136000
     45 H051       -15.6460    -6.2620     7.5840 ha         1 U59       0.113000
     46 H081       -17.8020    -5.6350     6.5990 h4         1 U59       0.173000
     47 H112       -21.3110    -3.4910     7.0420 h1         1 U59       0.068200
     48 H111       -21.8890    -4.2930     5.5510 h1         1 U59       0.068200
     49 H232       -11.5600    -2.1060     6.5960 hc         1 U59       0.074200
     50 H231       -11.1970    -0.6900     7.6860 hc         1 U59       0.074200
     51 H251       -14.6040     1.2440    10.4450 ha         1 U59       0.127000
     52 H303       -15.0460     0.2530    17.0640 h1         1 U59       0.100700
     53 H302       -14.1530    -0.9160    16.0410 h1         1 U59       0.100700
     54 H301       -13.9500     0.8460    15.7710 h1         1 U59       0.100700
     55 H321       -14.9300    -2.3650    13.8120 ha         1 U59       0.130000
     56 H331       -12.2990    -3.1630    13.0720 h4         1 U59       0.197000
     57 H352       -10.8770    -4.6710    13.6220 h1         1 U59       0.053033
     58 H353       -11.3450    -6.3640    13.3380 h1         1 U59       0.053033
     59 H351       -10.1910    -5.5760    12.2520 h1         1 U59       0.053033
     60 C35        -11.0800    -5.4210    12.8620 c3         1 U59       0.085300
@<TRIPOS>BOND
     1     1    15 1   
     2     1    26 1   
     3     1    35 1   
     4     1    36 1   
     5     2    12 ar  
     6     2    16 ar  
     7     2    37 1   
     8     3    16 1   
     9     3    17 1   
    10     3    24 2   
    11     4     5 1   
    12     4    31 1   
    13     4    38 1   
    14     4    39 1   
    15     5     6 1   
    16     5    19 1   
    17     5    40 1   
    18     6    19 1   
    19     6    41 1   
    20     6    42 1   
    21     7    20 ar  
    22     7    21 ar  
    23     7    43 1   
    24     8     9 1   
    25     8    29 1   
    26     8    30 2   
    27     9    10 ar  
    28     9    16 ar  
    29    10    11 ar  
    30    10    44 1   
    31    11    12 ar  
    32    11    45 1   
    33    12    13 1   
    34    13    14 2   
    35    13    28 1   
    36    14    26 1   
    37    14    46 1   
    38    15    25 1   
    39    15    47 1   
    40    15    48 1   
    41    17    18 ar  
    42    17    23 ar  
    43    18    20 ar  
    44    18    31 1   
    45    19    49 1   
    46    19    50 1   
    47    20    51 1   
    48    21    23 ar  
    49    21    34 1   
    50    22    34 1   
    51    22    52 1   
    52    22    53 1   
    53    22    54 1   
    54    23    55 1   
    55    24    29 1   
    56    24    56 1   
    57    26    27 1   
    58    27    28 2   
    59    29    60 1   
    60    32    34 2   
    61    33    34 2   
    62    57    60 1   
    63    58    60 1   
    64    59    60 1   
@<TRIPOS>SUBSTRUCTURE
     1 U59         1 TEMP              0 ****  ****    0 ROOT
