@<TRIPOS>MOLECULE
U5A
   36    38     1     0     0
SMALL
abcg2


@<TRIPOS>ATOM
      1 N          -27.0410   -29.8670    70.8680 nt         1 U5A      -0.595000
      2 C          -28.2160   -29.7100    70.2420 c          1 U5A       0.633100
      3 O          -29.1110   -30.5300    70.2140 o          1 U5A      -0.546000
      4 C5         -30.1240   -24.7010    65.5970 c5         1 U5A      -0.098400
      5 N4         -30.2340   -27.5580    64.5230 nu         1 U5A      -0.909400
      6 N3         -28.9010   -26.5880    66.2800 nh         1 U5A      -0.773600
      7 C2         -29.4810   -28.8710    67.5190 c6         1 U5A       0.183500
      8 O1         -28.2740   -28.5200    69.6260 os         1 U5A      -0.457100
      9 C6         -31.0500   -25.8110    66.0910 c5         1 U5A      -0.101400
     10 C7         -30.2070   -27.0680    65.8890 c5         1 U5A       0.510400
     11 C8         -30.9200   -28.7390    64.4040 c2         1 U5A       0.829100
     12 C9         -30.6460   -28.3190    66.6940 c5         1 U5A       0.241500
     13 C1         -29.4520   -28.2020    68.8970 c3         1 U5A       0.149600
     14 C3         -27.8470   -27.4390    66.4460 c2         1 U5A       0.827100
     15 C4         -28.7210   -25.1740    66.0000 c5         1 U5A       0.233800
     16 N1         -28.2550   -28.7170    66.7640 nu         1 U5A      -0.909400
     17 N2         -26.6420   -27.0300    66.3070 n2         1 U5A      -0.888100
     18 N5         -31.2920   -29.2310    63.2840 n2         1 U5A      -0.890100
     19 N6         -31.0670   -29.2310    65.6660 nu         1 U5A      -0.977400
     20 H1         -26.8980   -30.6800    71.4420 hn         1 U5A       0.330500
     21 H2         -26.3810   -29.1130    70.9550 hn         1 U5A       0.330500
     22 H4         -30.1960   -24.5970    64.5130 hc         1 U5A       0.054200
     23 H5         -29.6430   -29.9410    67.6560 h1         1 U5A       0.088700
     24 H6         -31.2630   -25.6860    67.1550 hc         1 U5A       0.061200
     25 H7         -32.0000   -25.8630    65.5600 hc         1 U5A       0.061200
     26 H8         -31.4790   -28.0730    67.3620 h1         1 U5A       0.055700
     27 H9         -29.4360   -27.1170    68.8010 h1         1 U5A       0.072200
     28 H10        -30.3490   -28.4790    69.4560 h1         1 U5A       0.072200
     29 H11        -27.9910   -25.0080    65.2050 h1         1 U5A       0.059200
     30 H12        -28.3550   -24.6600    66.8910 h1         1 U5A       0.059200
     31 H13        -25.9860   -27.7620    66.5590 hn         1 U5A       0.380400
     32 H15        -31.7630   -30.1160    63.4240 hn         1 U5A       0.382400
     33 H17        -31.6500   -30.0260    65.8640 hn         1 U5A       0.503000
     34 H18        -30.2970   -26.9030    63.7590 hn         1 U5A       0.500000
     35 H19        -27.5090   -29.3490    67.0080 hn         1 U5A       0.474000
     36 H3         -30.3710   -23.7310    66.0260 hc         1 U5A       0.054200
@<TRIPOS>BOND
     1     1     2 1   
     2     1    20 1   
     3     1    21 1   
     4     2     3 2   
     5     2     8 1   
     6     4     9 1   
     7     4    15 1   
     8     4    22 1   
     9     4    36 1   
    10     5    10 1   
    11     5    11 1   
    12     5    34 1   
    13     6    10 1   
    14     6    14 1   
    15     6    15 1   
    16     7    12 1   
    17     7    13 1   
    18     7    16 1   
    19     7    23 1   
    20     8    13 1   
    21     9    10 1   
    22     9    24 1   
    23     9    25 1   
    24    10    12 1   
    25    11    18 2   
    26    11    19 1   
    27    12    19 1   
    28    12    26 1   
    29    13    27 1   
    30    13    28 1   
    31    14    16 1   
    32    14    17 2   
    33    15    29 1   
    34    15    30 1   
    35    16    35 1   
    36    17    31 1   
    37    18    32 1   
    38    19    33 1   
@<TRIPOS>SUBSTRUCTURE
     1 U5A         1 TEMP              0 ****  ****    0 ROOT
