@<TRIPOS>MOLECULE
U5A
   36    38     1     0     0
SMALL
No Charge or Current Charge


@<TRIPOS>ATOM
      1 N          -27.4350   -29.7280    71.2300 nt         1 U5A      -0.595000
      2 C          -28.4840   -29.5600    70.4160 c          1 U5A       0.633100
      3 O          -29.3790   -30.3760    70.2920 o          1 U5A      -0.546000
      4 C5         -30.0290   -24.7500    65.8510 c5         1 U5A      -0.098400
      5 N4         -30.6150   -27.3920    64.3640 nu         1 U5A      -0.909400
      6 N3         -28.7780   -26.7100    65.5710 nh         1 U5A      -0.773600
      7 C2         -29.2640   -28.7780    67.5140 c6         1 U5A       0.183500
      8 O1         -28.4050   -28.3470    69.8050 os         1 U5A      -0.457100
      9 C6         -30.9370   -25.9370    66.2990 c5         1 U5A      -0.101400
     10 C7         -30.1610   -27.1570    65.7140 c5         1 U5A       0.510400
     11 C8         -30.9260   -28.6820    64.2850 c2         1 U5A       0.829100
     12 C9         -30.4000   -28.5070    66.4860 c5         1 U5A       0.241500
     13 C1         -29.4330   -27.9800    68.8530 c3         1 U5A       0.149600
     14 C3         -27.7770   -27.5830    65.8730 c2         1 U5A       0.827100
     15 C4         -28.6000   -25.3300    66.0690 c5         1 U5A       0.233800
     16 N1         -27.9580   -28.4600    66.8870 nu         1 U5A      -0.909400
     17 N2         -26.6130   -27.4170    65.4290 n2         1 U5A      -0.888100
     18 N5         -31.7460   -29.0800    63.4360 n2         1 U5A      -0.890100
     19 N6         -30.5590   -29.4410    65.3270 nu         1 U5A      -0.977400
     20 H1         -27.3540   -30.5760    71.7700 hn         1 U5A       0.330500
     21 H2         -26.7390   -29.0020    71.2950 hn         1 U5A       0.330500
     22 H4         -30.1920   -24.4960    64.7970 hc         1 U5A       0.054200
     23 H5         -29.3060   -29.8470    67.7680 h1         1 U5A       0.088700
     24 H6         -30.9980   -25.9830    67.3910 hc         1 U5A       0.061200
     25 H7         -31.9660   -25.8540    65.9310 hc         1 U5A       0.061200
     26 H8         -31.3490   -28.4550    67.0390 h1         1 U5A       0.055700
     27 H9         -29.3580   -26.9090    68.6330 h1         1 U5A       0.072200
     28 H10        -30.4340   -28.1640    69.2670 h1         1 U5A       0.072200
     29 H11        -27.8330   -24.7730    65.5120 h1         1 U5A       0.059200
     30 H12        -28.3270   -25.3200    67.1340 h1         1 U5A       0.059200
     31 H13        -26.0270   -28.1500    65.8350 hn         1 U5A       0.380400
     32 H15        -31.9010   -30.0790    63.5940 hn         1 U5A       0.382400
     33 H17        -31.1080   -30.2850    65.4430 hn         1 U5A       0.503000
     34 H18        -31.3340   -26.8080    63.9710 hn         1 U5A       0.500000
     35 H19        -27.1240   -28.6550    67.4290 hn         1 U5A       0.474000
     36 H3         -30.2020   -23.8390    66.4360 hc         1 U5A       0.054200
@<TRIPOS>BOND
     1     1     2 1   
     2     1    20 1   
     3     1    21 1   
     4     2     3 2   
     5     2     8 1   
     6     4     9 1   
     7     4    15 1   
     8     4    22 1   
     9     4    36 1   
    10     5    10 1   
    11     5    11 1   
    12     5    34 1   
    13     6    10 1   
    14     6    14 1   
    15     6    15 1   
    16     7    12 1   
    17     7    13 1   
    18     7    16 1   
    19     7    23 1   
    20     8    13 1   
    21     9    10 1   
    22     9    24 1   
    23     9    25 1   
    24    10    12 1   
    25    11    18 2   
    26    11    19 1   
    27    12    19 1   
    28    12    26 1   
    29    13    27 1   
    30    13    28 1   
    31    14    16 1   
    32    14    17 2   
    33    15    29 1   
    34    15    30 1   
    35    16    35 1   
    36    17    31 1   
    37    18    32 1   
    38    19    33 1   
@<TRIPOS>SUBSTRUCTURE
     1 U5A         1 TEMP              0 ****  ****    0 ROOT
