@<TRIPOS>MOLECULE
U5B
   28    30     1     0     0
SMALL
No Charge or Current Charge


@<TRIPOS>ATOM
      1 C14          6.5850    -4.2420     6.0970 c3         1 U5B      -0.105400
      2 C11          1.9510    -7.0510     6.7430 ca         1 U5B      -0.129300
      3 C10          3.2810    -7.1260     7.1790 ca         1 U5B      -0.069000
      4 C12          1.5800    -6.0270     5.9150 ca         1 U5B      -0.037000
      5 C01          0.7840    -7.9800     7.0630 c5         1 U5B      -0.017100
      6 C02         -0.4180    -7.3180     6.2500 c5         1 U5B      -0.025100
      7 C03          0.2510    -6.1140     5.5940 ca         1 U5B      -0.092300
      8 C04         -0.3150    -5.1470     4.7480 ca         1 U5B      -0.105000
      9 C05          0.5130    -4.1110     4.2560 ca         1 U5B      -0.136000
     10 C06          1.8860    -4.0470     4.6060 ca         1 U5B      -0.071000
     11 C07          2.4410    -5.0290     5.4590 ca         1 U5B      -0.019000
     12 C08          3.7940    -5.0800     5.8840 ca         1 U5B      -0.077000
     13 C09          4.1980    -6.1380     6.7470 ca         1 U5B      -0.157000
     14 C15          7.6770    -3.2370     5.7020 c          1 U5B       0.739000
     15 O16          7.8450    -2.2570     6.4140 o          1 U5B      -0.710000
     16 O17          8.3380    -3.4660     4.6990 o          1 U5B      -0.710000
     17 S13          4.9550    -3.8160     5.3270 ss         1 U5B      -0.087000
     18 H1           6.8930    -5.2420     5.7680 h1         1 U5B       0.047200
     19 H2           6.4840    -4.2390     7.1890 h1         1 U5B       0.047200
     20 H5          -1.2370    -7.0180     6.9130 hc         1 U5B       0.041200
     21 H6          -1.3670    -5.1940     4.4780 ha         1 U5B       0.098000
     22 H7           0.0910    -3.3530     3.6000 ha         1 U5B       0.100000
     23 H8           2.4950    -3.2380     4.2110 ha         1 U5B       0.133000
     24 H9           5.2230    -6.2140     7.0950 ha         1 U5B       0.120000
     25 H11          0.9770    -9.0070     6.7330 hc         1 U5B       0.040700
     26 H12         -0.8320    -8.0100     5.5080 hc         1 U5B       0.041200
     27 H3           3.6020    -7.9290     7.8390 ha         1 U5B       0.099000
     28 H4           0.5730    -8.0160     8.1380 hc         1 U5B       0.040700
@<TRIPOS>BOND
     1     1    14 1   
     2     1    17 1   
     3     1    18 1   
     4     1    19 1   
     5     2     3 ar  
     6     2     4 ar  
     7     2     5 1   
     8     3    13 ar  
     9     3    27 1   
    10     4     7 ar  
    11     4    11 ar  
    12     5     6 1   
    13     5    25 1   
    14     5    28 1   
    15     6     7 1   
    16     6    20 1   
    17     6    26 1   
    18     7     8 ar  
    19     8     9 ar  
    20     8    21 1   
    21     9    10 ar  
    22     9    22 1   
    23    10    11 ar  
    24    10    23 1   
    25    11    12 ar  
    26    12    13 ar  
    27    12    17 1   
    28    13    24 1   
    29    14    15 1   
    30    14    16 1   
@<TRIPOS>SUBSTRUCTURE
     1 U5B         1 TEMP              0 ****  ****    0 ROOT
