@<TRIPOS>MOLECULE
U5B
   28    30     1     0     0
SMALL
abcg2


@<TRIPOS>ATOM
      1 C14          6.5200    -4.2980     6.0580 c3         1 U5B      -0.105400
      2 C11          2.0000    -7.1070     6.7330 ca         1 U5B      -0.129300
      3 C10          3.3090    -7.1800     7.1170 ca         1 U5B      -0.069000
      4 C12          1.6070    -6.0210     5.9320 ca         1 U5B      -0.037000
      5 C01          0.8060    -7.9890     6.9920 c5         1 U5B      -0.017100
      6 C02         -0.3690    -7.2950     6.2490 c5         1 U5B      -0.025100
      7 C03          0.2400    -6.0720     5.6110 ca         1 U5B      -0.092300
      8 C04         -0.2950    -5.0810     4.8330 ca         1 U5B      -0.105000
      9 C05          0.5540    -4.0440     4.3810 ca         1 U5B      -0.136000
     10 C06          1.8920    -3.9950     4.6960 ca         1 U5B      -0.071000
     11 C07          2.4710    -5.0060     5.5000 ca         1 U5B      -0.019000
     12 C08          3.8340    -5.1010     5.9190 ca         1 U5B      -0.077000
     13 C09          4.2140    -6.1710     6.7040 ca         1 U5B      -0.157000
     14 C15          7.5780    -3.2420     5.6570 c          1 U5B       0.739000
     15 O16          7.1730    -2.2600     5.0100 o          1 U5B      -0.710000
     16 O17          8.7330    -3.4960     6.0350 o          1 U5B      -0.710000
     17 S13          4.9160    -3.8140     5.3880 ss         1 U5B      -0.087000
     18 H1           6.8100    -5.2790     5.6770 h1         1 U5B       0.047200
     19 H2           6.4690    -4.3720     7.1470 h1         1 U5B       0.047200
     20 H5          -1.1730    -7.0220     6.9350 hc         1 U5B       0.041200
     21 H6          -1.3430    -5.0750     4.5580 ha         1 U5B       0.098000
     22 H7           0.1330    -3.2600     3.7630 ha         1 U5B       0.100000
     23 H8           2.4920    -3.1760     4.3190 ha         1 U5B       0.133000
     24 H9           5.2400    -6.2620     7.0300 ha         1 U5B       0.120000
     25 H11          0.9700    -9.0020     6.6190 hc         1 U5B       0.040700
     26 H12         -0.8140    -7.9510     5.4990 hc         1 U5B       0.041200
     27 H3           3.6790    -7.9910     7.7340 ha         1 U5B       0.099000
     28 H4           0.6030    -8.0830     8.0600 hc         1 U5B       0.040700
@<TRIPOS>BOND
     1     1    14 1   
     2     1    17 1   
     3     1    18 1   
     4     1    19 1   
     5     2     3 ar  
     6     2     4 ar  
     7     2     5 1   
     8     3    13 ar  
     9     3    27 1   
    10     4     7 ar  
    11     4    11 ar  
    12     5     6 1   
    13     5    25 1   
    14     5    28 1   
    15     6     7 1   
    16     6    20 1   
    17     6    26 1   
    18     7     8 ar  
    19     8     9 ar  
    20     8    21 1   
    21     9    10 ar  
    22     9    22 1   
    23    10    11 ar  
    24    10    23 1   
    25    11    12 ar  
    26    12    13 ar  
    27    12    17 1   
    28    13    24 1   
    29    14    15 1   
    30    14    16 1   
@<TRIPOS>SUBSTRUCTURE
     1 U5B         1 TEMP              0 ****  ****    0 ROOT
