@<TRIPOS>MOLECULE
U5C
   17    16     1     0     0
SMALL
abcg2


@<TRIPOS>ATOM
      1 C07          9.5290    34.1490    74.2380 c3         1 U5C      -0.027400
      2 C08          8.3160    33.2310    74.1500 c3         1 U5C       0.240000
      3 C09         10.6070    33.8720    73.1930 c3         1 U5C      -0.185400
      4 C10          7.2830    33.5160    75.3000 c          1 U5C       0.669000
      5 C11         11.8670    34.7380    73.3820 c          1 U5C       0.703000
      6 O01          8.7050    31.8790    74.2480 oh         1 U5C      -0.700500
      7 O02          7.6930    33.4660    72.8840 oh         1 U5C      -0.700500
      8 O03          6.8850    34.6870    75.4510 o          1 U5C      -0.731500
      9 O04          6.9360    32.4990    75.9640 o          1 U5C      -0.731500
     10 O05         12.3570    34.7970    74.5410 o          1 U5C      -0.771500
     11 O06         12.3300    35.3150    72.3620 o          1 U5C      -0.771500
     12 H1           9.9580    34.0330    75.2350 hc         1 U5C       0.049200
     13 H2           9.1800    35.1790    74.1560 hc         1 U5C       0.049200
     14 H3          10.2160    34.0290    72.1880 hc         1 U5C       0.021700
     15 H4          10.9160    32.8240    73.2640 hc         1 U5C       0.021700
     16 H5           8.1020    31.5390    74.9450 ho         1 U5C       0.432500
     17 H6           6.9230    32.8860    72.8230 ho         1 U5C       0.432500
@<TRIPOS>BOND
     1     1     2 1   
     2     1     3 1   
     3     1    12 1   
     4     1    13 1   
     5     2     4 1   
     6     2     6 1   
     7     2     7 1   
     8     3     5 1   
     9     3    14 1   
    10     3    15 1   
    11     4     8 1   
    12     4     9 1   
    13     5    10 1   
    14     5    11 1   
    15     6    16 1   
    16     7    17 1   
@<TRIPOS>SUBSTRUCTURE
     1 U5C         1 TEMP              0 ****  ****    0 ROOT
