@<TRIPOS>MOLECULE
U5C
   17    16     1     0     0
SMALL
No Charge or Current Charge


@<TRIPOS>ATOM
      1 C07          9.5700    34.1300    74.1910 c3         1 U5C      -0.027400
      2 C08          8.3370    33.1630    74.1940 c3         1 U5C       0.240000
      3 C09         10.7270    33.7880    73.2060 c3         1 U5C      -0.185400
      4 C10          7.2100    33.6280    75.2580 c          1 U5C       0.669000
      5 C11         11.8460    34.8350    73.3360 c          1 U5C       0.703000
      6 O01          8.7830    31.8280    74.4680 oh         1 U5C      -0.700500
      7 O02          7.7930    33.0850    72.8700 oh         1 U5C      -0.700500
      8 O03          7.3780    34.6310    75.9420 o          1 U5C      -0.731500
      9 O04          6.1980    32.9390    75.3430 o          1 U5C      -0.731500
     10 O05         12.7250    34.6440    74.1630 o          1 U5C      -0.771500
     11 O06         11.7840    35.8390    72.6430 o          1 U5C      -0.771500
     12 H1           9.9820    34.1690    75.2070 hc         1 U5C       0.049200
     13 H2           9.2150    35.1430    73.9670 hc         1 U5C       0.049200
     14 H3          10.2970    33.8190    72.1980 hc         1 U5C       0.021700
     15 H4          11.1010    32.7990    73.4970 hc         1 U5C       0.021700
     16 H5           8.0070    31.3660    74.8540 ho         1 U5C       0.432500
     17 H6           6.8510    32.8340    72.9870 ho         1 U5C       0.432500
@<TRIPOS>BOND
     1     1     2 1   
     2     1     3 1   
     3     1    12 1   
     4     1    13 1   
     5     2     4 1   
     6     2     6 1   
     7     2     7 1   
     8     3     5 1   
     9     3    14 1   
    10     3    15 1   
    11     4     8 1   
    12     4     9 1   
    13     5    10 1   
    14     5    11 1   
    15     6    16 1   
    16     7    17 1   
@<TRIPOS>SUBSTRUCTURE
     1 U5C         1 TEMP              0 ****  ****    0 ROOT
