@<TRIPOS>MOLECULE
U5D
   49    52     1     0     0
SMALL
abcg2


@<TRIPOS>ATOM
      1 C10          1.3120    -3.0510    84.0320 ca         1 U5D      -0.180600
      2 C13         -0.2120    -1.7120    85.9390 ca         1 U5D       0.204400
      3 C15         -0.0750    -3.0900    83.9110 ca         1 U5D       0.056700
      4 C21         -0.7180    -3.9110    82.8280 c3         1 U5D      -0.055800
      5 C26         -6.4120    -2.5950    86.5990 ca         1 U5D      -0.104500
      6 C28         -6.3940    -0.5750    85.2920 ca         1 U5D      -0.104500
      7 C1           4.0950    -6.4960    84.8290 c6         1 U5D      -0.093200
      8 C2           5.4760    -5.8660    84.8200 c6         1 U5D      -0.061400
      9 C3           5.7640    -5.2340    83.4680 c6         1 U5D      -0.183400
     10 C4           4.7100    -4.2300    83.0670 c          1 U5D       0.598300
     11 C5           3.3390    -4.4950    83.5070 ce         1 U5D      -0.362400
     12 C6           3.0550    -5.5650    84.2990 c2         1 U5D       0.185900
     13 O7           1.7890    -5.8320    84.5730 oh         1 U5D      -0.508100
     14 C9           2.2410    -3.6270    83.0100 c          1 U5D       0.619900
     15 C11          1.9240    -2.3870    85.1030 ca         1 U5D      -0.045000
     16 C12          1.1820    -1.7160    86.0390 ca         1 U5D      -0.123000
     17 C14         -0.8400    -2.3960    84.8800 ca         1 U5D      -0.210600
     18 C16         -2.3010    -2.3430    84.8290 c          1 U5D       0.580600
     19 N17         -0.9020    -1.0330    86.9110 nc         1 U5D      -0.644100
     20 N18         -2.9000    -1.6580    85.8900 n          1 U5D      -0.270500
     21 C19         -2.1860    -1.0240    86.8750 cd         1 U5D       0.522900
     22 O20         -3.0100    -2.8240    83.9690 o          1 U5D      -0.519000
     23 O22          2.1310    -3.3400    81.8390 o          1 U5D      -0.489100
     24 C23         -4.3320    -1.6290    85.9050 ca         1 U5D       0.027600
     25 C25         -5.0250    -2.6280    86.5700 ca         1 U5D      -0.094500
     26 C27         -7.0960    -1.5690    85.9600 ca         1 U5D      -0.101000
     27 C29         -5.0070    -0.6040    85.2600 ca         1 U5D      -0.094500
     28 H1          -1.4760    -4.5710    83.2410 hc         1 U5D       0.058700
     29 H2          -1.2100    -3.2860    82.0830 hc         1 U5D       0.058700
     30 H3           0.0070    -4.5300    82.3100 hc         1 U5D       0.058700
     31 H4          -2.2350     0.1510    88.6280 hc         1 U5D       0.067367
     32 H5          -3.5700     0.4870    87.5160 hc         1 U5D       0.067367
     33 H6          -3.5970    -0.9720    88.4920 hc         1 U5D       0.067367
     34 H7          -6.9560    -3.3710    87.1200 ha         1 U5D       0.118500
     35 H8          -6.9250     0.2250    84.7940 ha         1 U5D       0.118500
     36 H9           3.8160    -6.8070    85.8400 hc         1 U5D       0.064200
     37 H10          4.0820    -7.4030    84.2130 hc         1 U5D       0.064200
     38 H11          6.2250    -6.6220    85.0500 hc         1 U5D       0.054200
     39 H12          5.5380    -5.1080    85.6040 hc         1 U5D       0.054200
     40 H13          5.7840    -6.0130    82.6950 hc         1 U5D       0.074200
     41 H14          6.7400    -4.7480    83.4530 hc         1 U5D       0.074200
     42 H17          1.7050    -6.5770    85.1830 ho         1 U5D       0.475000
     43 H18          3.0040    -2.3920    85.1840 ha         1 U5D       0.122000
     44 H19          1.6520    -1.1910    86.8600 ha         1 U5D       0.134000
     45 H20         -4.4820    -3.4230    87.0660 ha         1 U5D       0.124500
     46 H21         -8.1780    -1.5440    85.9850 ha         1 U5D       0.116000
     47 H22         -4.4510     0.1690    84.7440 ha         1 U5D       0.124500
     48 C24         -2.9430    -0.2990    87.9370 c3         1 U5D      -0.139400
     49 O8           4.9920    -3.2520    82.3980 o          1 U5D      -0.509100
@<TRIPOS>BOND
     1     1     3 ar  
     2     1    14 1   
     3     1    15 ar  
     4     2    16 ar  
     5     2    17 ar  
     6     2    19 1   
     7     3     4 1   
     8     3    17 ar  
     9     4    28 1   
    10     4    29 1   
    11     4    30 1   
    12     5    25 ar  
    13     5    26 ar  
    14     5    34 1   
    15     6    26 ar  
    16     6    27 ar  
    17     6    35 1   
    18     7     8 1   
    19     7    12 1   
    20     7    36 1   
    21     7    37 1   
    22     8     9 1   
    23     8    38 1   
    24     8    39 1   
    25     9    10 1   
    26     9    40 1   
    27     9    41 1   
    28    10    11 1   
    29    10    49 2   
    30    11    12 2   
    31    11    14 1   
    32    12    13 1   
    33    13    42 1   
    34    14    23 2   
    35    15    16 ar  
    36    15    43 1   
    37    16    44 1   
    38    17    18 1   
    39    18    20 1   
    40    18    22 2   
    41    19    21 2   
    42    20    21 1   
    43    20    24 1   
    44    21    48 1   
    45    24    25 ar  
    46    24    27 ar  
    47    25    45 1   
    48    26    46 1   
    49    27    47 1   
    50    31    48 1   
    51    32    48 1   
    52    33    48 1   
@<TRIPOS>SUBSTRUCTURE
     1 U5D         1 TEMP              0 ****  ****    0 ROOT
