@<TRIPOS>MOLECULE
U5D
   49    52     1     0     0
SMALL
No Charge or Current Charge


@<TRIPOS>ATOM
      1 C10          1.3130    -3.1340    84.0830 ca         1 U5D      -0.180600
      2 C13         -0.3670    -1.9180    86.0170 ca         1 U5D       0.204400
      3 C15         -0.0980    -3.1550    83.9020 ca         1 U5D       0.056700
      4 C21         -0.6920    -3.9270    82.7140 c3         1 U5D      -0.055800
      5 C26         -6.7170    -2.3530    86.4800 ca         1 U5D      -0.104500
      6 C28         -6.4570    -0.2140    85.3470 ca         1 U5D      -0.104500
      7 C1           4.4910    -6.2550    85.0780 c6         1 U5D      -0.093200
      8 C2           5.8740    -5.7920    84.5710 c6         1 U5D      -0.061400
      9 C3           5.7940    -5.4470    83.0720 c6         1 U5D      -0.183400
     10 C4           4.7470    -4.3590    82.8240 c          1 U5D       0.598300
     11 C5           3.4440    -4.5190    83.5320 ce         1 U5D      -0.362400
     12 C6           3.3420    -5.3880    84.5690 c2         1 U5D       0.185900
     13 O7           2.1920    -5.6430    85.2110 oh         1 U5D      -0.508100
     14 C9           2.2830    -3.6970    83.0680 c          1 U5D       0.619900
     15 C11          1.8560    -2.5330    85.2300 ca         1 U5D      -0.045000
     16 C12          1.0230    -1.9490    86.1840 ca         1 U5D      -0.123000
     17 C14         -0.9360    -2.5030    84.8640 ca         1 U5D      -0.210600
     18 C16         -2.4250    -2.3820    84.7230 c          1 U5D       0.580600
     19 N17         -1.0780    -1.2910    87.0480 nc         1 U5D      -0.644100
     20 N18         -3.0770    -1.7790    85.7860 n          1 U5D      -0.270500
     21 C19         -2.4020    -1.2670    86.8890 cd         1 U5D       0.522900
     22 O20         -3.0580    -2.7470    83.7410 o          1 U5D      -0.519000
     23 O22          2.1780    -3.3740    81.8920 o          1 U5D      -0.489100
     24 C23         -4.4960    -1.5750    85.8450 ca         1 U5D       0.027600
     25 C25         -5.3260    -2.5500    86.4290 ca         1 U5D      -0.094500
     26 C27         -7.2820    -1.1840    85.9410 ca         1 U5D      -0.101000
     27 C29         -5.0650    -0.4110    85.2950 ca         1 U5D      -0.094500
     28 H1          -1.5300    -4.5590    83.0300 hc         1 U5D       0.058700
     29 H2          -1.0460    -3.2450    81.9330 hc         1 U5D       0.058700
     30 H3           0.0120    -4.6250    82.2520 hc         1 U5D       0.058700
     31 H4          -2.4300    -0.2700    88.8270 hc         1 U5D       0.067367
     32 H5          -3.6680     0.2900    87.7050 hc         1 U5D       0.067367
     33 H6          -3.8360    -1.2830    88.5120 hc         1 U5D       0.067367
     34 H7          -7.3560    -3.1070    86.9350 ha         1 U5D       0.118500
     35 H8          -6.8940     0.6880    84.9250 ha         1 U5D       0.118500
     36 H9           4.5030    -6.2720    86.1780 hc         1 U5D       0.064200
     37 H10          4.3210    -7.2920    84.7540 hc         1 U5D       0.064200
     38 H11          6.6250    -6.5740    84.7480 hc         1 U5D       0.054200
     39 H12          6.2000    -4.9060    85.1350 hc         1 U5D       0.054200
     40 H13          5.4350    -6.3530    82.5640 hc         1 U5D       0.074200
     41 H14          6.7630    -5.1570    82.6440 hc         1 U5D       0.074200
     42 H17          2.3690    -6.3340    85.8830 ho         1 U5D       0.475000
     43 H18          2.9340    -2.5100    85.3830 ha         1 U5D       0.122000
     44 H19          1.4660    -1.4960    87.0670 ha         1 U5D       0.134000
     45 H20         -4.8920    -3.4580    86.8430 ha         1 U5D       0.124500
     46 H21         -8.3590    -1.0320    85.9800 ha         1 U5D       0.116000
     47 H22         -4.4300     0.3400    84.8310 ha         1 U5D       0.124500
     48 C24         -3.1220    -0.5980    88.0430 c3         1 U5D      -0.139400
     49 O8           5.0030    -3.4130    82.0910 o          1 U5D      -0.509100
@<TRIPOS>BOND
     1     1     3 ar  
     2     1    14 1   
     3     1    15 ar  
     4     2    16 ar  
     5     2    17 ar  
     6     2    19 1   
     7     3     4 1   
     8     3    17 ar  
     9     4    28 1   
    10     4    29 1   
    11     4    30 1   
    12     5    25 ar  
    13     5    26 ar  
    14     5    34 1   
    15     6    26 ar  
    16     6    27 ar  
    17     6    35 1   
    18     7     8 1   
    19     7    12 1   
    20     7    36 1   
    21     7    37 1   
    22     8     9 1   
    23     8    38 1   
    24     8    39 1   
    25     9    10 1   
    26     9    40 1   
    27     9    41 1   
    28    10    11 1   
    29    10    49 2   
    30    11    12 2   
    31    11    14 1   
    32    12    13 1   
    33    13    42 1   
    34    14    23 2   
    35    15    16 ar  
    36    15    43 1   
    37    16    44 1   
    38    17    18 1   
    39    18    20 1   
    40    18    22 2   
    41    19    21 2   
    42    20    21 1   
    43    20    24 1   
    44    21    48 1   
    45    24    25 ar  
    46    24    27 ar  
    47    25    45 1   
    48    26    46 1   
    49    27    47 1   
    50    31    48 1   
    51    32    48 1   
    52    33    48 1   
@<TRIPOS>SUBSTRUCTURE
     1 U5D         1 TEMP              0 ****  ****    0 ROOT
