@<TRIPOS>MOLECULE
U5E
   30    32     1     0     0
SMALL
No Charge or Current Charge


@<TRIPOS>ATOM
      1 C01          9.1600    -3.2130     6.0800 c3         1 U5E       0.095300
      2 C03          6.7240    -3.2810     5.4740 c          1 U5E       0.638700
      3 C05          5.4990    -4.0880     5.6080 cc         1 U5E      -0.307600
      4 C06          5.3680    -5.3010     6.2570 cd         1 U5E      -0.089000
      5 C07          4.0440    -5.8210     6.2050 cd         1 U5E      -0.113300
      6 C08          3.6220    -7.1390     6.8140 c6         1 U5E      -0.006100
      7 C09          2.1310    -7.1010     7.2260 c6         1 U5E      -0.029100
      8 C10          1.2460    -6.4150     6.1780 ca         1 U5E      -0.061300
      9 C11         -0.1060    -6.7850     6.0460 ca         1 U5E      -0.109000
     10 C12         -0.9280    -6.1390     5.1080 ca         1 U5E      -0.102000
     11 C13         -0.4030    -5.1150     4.3030 ca         1 U5E      -0.109000
     12 C14          0.9450    -4.7370     4.4340 ca         1 U5E      -0.098000
     13 C15          1.7780    -5.3830     5.3700 ca         1 U5E      -0.010000
     14 C16          3.1840    -5.0020     5.5190 cc         1 U5E      -0.175000
     15 N02          7.8310    -3.8280     6.0770 ns         1 U5E      -0.495900
     16 O04          6.7690    -2.2130     4.8810 o          1 U5E      -0.612100
     17 S17          3.9760    -3.5550     4.9020 ss         1 U5E       0.346000
     18 H1           9.8600    -3.8560     6.6290 h1         1 U5E       0.041367
     19 H2           9.5130    -3.0920     5.0480 h1         1 U5E       0.041367
     20 H3           9.1120    -2.2310     6.5670 h1         1 U5E       0.041367
     21 H4           6.1770    -5.8220     6.7590 ha         1 U5E       0.126000
     22 H5           3.7740    -7.9440     6.0820 hc         1 U5E       0.052200
     23 H6           4.2430    -7.3910     7.6850 hc         1 U5E       0.052200
     24 H7           2.0360    -6.5540     8.1740 hc         1 U5E       0.053200
     25 H8           1.7780    -8.1230     7.4230 hc         1 U5E       0.053200
     26 H9          -0.5210    -7.5720     6.6720 ha         1 U5E       0.112000
     27 H10         -1.9720    -6.4290     5.0070 ha         1 U5E       0.114000
     28 H11         -1.0390    -4.6140     3.5770 ha         1 U5E       0.116000
     29 H12          1.3360    -3.9440     3.8020 ha         1 U5E       0.116000
     30 H13          7.7030    -4.7140     6.5460 hn         1 U5E       0.318500
@<TRIPOS>BOND
     1     1    15 1   
     2     1    18 1   
     3     1    19 1   
     4     1    20 1   
     5     2     3 1   
     6     2    15 1   
     7     2    16 2   
     8     3     4 2   
     9     3    17 1   
    10     4     5 1   
    11     4    21 1   
    12     5     6 1   
    13     5    14 2   
    14     6     7 1   
    15     6    22 1   
    16     6    23 1   
    17     7     8 1   
    18     7    24 1   
    19     7    25 1   
    20     8     9 ar  
    21     8    13 ar  
    22     9    10 ar  
    23     9    26 1   
    24    10    11 ar  
    25    10    27 1   
    26    11    12 ar  
    27    11    28 1   
    28    12    13 ar  
    29    12    29 1   
    30    13    14 1   
    31    14    17 1   
    32    15    30 1   
@<TRIPOS>SUBSTRUCTURE
     1 U5E         1 TEMP              0 ****  ****    0 ROOT
