@<TRIPOS>MOLECULE
U5E
   30    32     1     0     0
SMALL
abcg2


@<TRIPOS>ATOM
      1 C01          9.0760    -3.0120     5.9570 c3         1 U5E       0.095300
      2 C03          6.7130    -3.4070     5.5270 c          1 U5E       0.638700
      3 C05          5.5450    -4.2870     5.7130 cc         1 U5E      -0.307600
      4 C06          5.3930    -5.5010     6.3280 cd         1 U5E      -0.089000
      5 C07          4.0640    -5.9760     6.2820 cd         1 U5E      -0.113300
      6 C08          3.5290    -7.2670     6.8200 c6         1 U5E      -0.006100
      7 C09          2.0730    -7.0870     7.2420 c6         1 U5E      -0.029100
      8 C10          1.2430    -6.4090     6.1840 ca         1 U5E      -0.061300
      9 C11         -0.0950    -6.7270     5.9910 ca         1 U5E      -0.109000
     10 C12         -0.8660    -6.0460     5.0570 ca         1 U5E      -0.102000
     11 C13         -0.2990    -5.0300     4.3000 ca         1 U5E      -0.109000
     12 C14          1.0380    -4.7070     4.4720 ca         1 U5E      -0.098000
     13 C15          1.8150    -5.3860     5.4090 ca         1 U5E      -0.010000
     14 C16          3.2260    -5.1100     5.6230 cc         1 U5E      -0.175000
     15 N02          7.8690    -3.7970     6.0780 ns         1 U5E      -0.495900
     16 O04          6.5940    -2.3650     4.8910 o          1 U5E      -0.612100
     17 S17          4.0560    -3.7160     5.0660 ss         1 U5E       0.346000
     18 H1           9.8610    -3.5050     6.5240 h1         1 U5E       0.041367
     19 H2           9.4030    -2.9280     4.9200 h1         1 U5E       0.041367
     20 H3           8.9430    -2.0070     6.3580 h1         1 U5E       0.041367
     21 H4           6.1950    -6.0520     6.8030 ha         1 U5E       0.126000
     22 H5           3.6070    -8.0440     6.0520 hc         1 U5E       0.052200
     23 H6           4.1250    -7.6070     7.6680 hc         1 U5E       0.052200
     24 H7           2.0460    -6.4730     8.1500 hc         1 U5E       0.053200
     25 H8           1.6320    -8.0490     7.5040 hc         1 U5E       0.053200
     26 H9          -0.5410    -7.5180     6.5830 ha         1 U5E       0.112000
     27 H10         -1.9070    -6.3090     4.9220 ha         1 U5E       0.114000
     28 H11         -0.8930    -4.4960     3.5700 ha         1 U5E       0.116000
     29 H12          1.4800    -3.9260     3.8630 ha         1 U5E       0.116000
     30 H13          7.9190    -4.6580     6.5960 hn         1 U5E       0.318500
@<TRIPOS>BOND
     1     1    15 1   
     2     1    18 1   
     3     1    19 1   
     4     1    20 1   
     5     2     3 1   
     6     2    15 1   
     7     2    16 2   
     8     3     4 2   
     9     3    17 1   
    10     4     5 1   
    11     4    21 1   
    12     5     6 1   
    13     5    14 2   
    14     6     7 1   
    15     6    22 1   
    16     6    23 1   
    17     7     8 1   
    18     7    24 1   
    19     7    25 1   
    20     8     9 ar  
    21     8    13 ar  
    22     9    10 ar  
    23     9    26 1   
    24    10    11 ar  
    25    10    27 1   
    26    11    12 ar  
    27    11    28 1   
    28    12    13 ar  
    29    12    29 1   
    30    13    14 1   
    31    14    17 1   
    32    15    30 1   
@<TRIPOS>SUBSTRUCTURE
     1 U5E         1 TEMP              0 ****  ****    0 ROOT
