@<TRIPOS>MOLECULE
U5F
   48    49     1     0     0
SMALL
No Charge or Current Charge


@<TRIPOS>ATOM
      1 C1           3.7350     0.5910    -0.1290 c5         1 U5F       0.344700
      2 C2           4.2160     2.6100     1.2310 c          1 U5F       0.601000
      3 C4           6.1600     2.7720     2.7030 c          1 U5F       0.543200
      4 C8           3.8900    -1.4870    -1.1810 c5         1 U5F       0.161300
      5 C5           6.5060     1.4140     2.2910 cc         1 U5F      -0.418200
      6 C9           4.3310    -2.9720    -1.0160 c3         1 U5F       0.235600
      7 C6           5.7400     0.7040     1.3920 cd         1 U5F      -0.064400
      8 N1           4.5970     1.3060     0.8550 n          1 U5F      -0.306000
      9 N3           5.0280     3.2430     2.1240 ns         1 U5F      -0.475500
     10 O01         -1.2890     0.1580     1.8550 o          1 U5F      -0.916000
     11 O02         -5.9580     2.1570    -1.6920 o          1 U5F      -0.926833
     12 O03         -2.8920    -1.5270     0.9380 o          1 U5F      -0.916000
     13 O04         -0.1840    -2.8570     1.8830 o          1 U5F      -0.887500
     14 O05         -1.0930    -3.7100    -0.2950 o          1 U5F      -0.887500
     15 O06         -3.4580     1.8790    -1.6510 os         1 U5F      -0.704800
     16 O1A          1.5020    -5.2330     0.2910 o          1 U5F      -0.879500
     17 O1B         -2.0100     2.7240     0.2510 o          1 U5F      -0.853500
     18 O1G         -4.5850     3.3720    -3.2520 o          1 U5F      -0.926833
     19 O2A          2.8610    -3.6010     1.5570 o          1 U5F      -0.879500
     20 O2B         -4.0490     1.3610     0.7930 o          1 U5F      -0.853500
     21 O2G         -2.1270     0.3380    -0.5700 os         1 U5F      -0.698800
     22 O3A          1.2330    -2.7190    -0.2400 os         1 U5F      -0.674800
     23 O3B         -0.5420    -1.2560    -0.0840 os         1 U5F      -0.711800
     24 O3G         -4.6030     4.0590    -0.9480 o          1 U5F      -0.926833
     25 O4           3.7550    -0.8390     0.1000 os         1 U5F      -0.371000
     26 O5           3.2090    -3.8710    -0.9560 os         1 U5F      -0.525400
     27 P01         -1.7650    -0.5880     0.6500 p5         1 U5F       1.542800
     28 P02         -0.2100    -2.7190     0.3950 p5         1 U5F       1.531800
     29 PA           2.1580    -3.8900     0.2700 p5         1 U5F       1.451800
     30 PB          -2.9390     1.6300    -0.1760 p5         1 U5F       1.551800
     31 PG          -4.6630     2.8750    -1.8500 p5         1 U5F       1.362900
     32 C7           4.3640     0.8260    -1.5600 c5         1 U5F       0.083300
     33 C3           4.9560    -0.5810    -1.8700 c5         1 U5F       0.071300
     34 O2           3.3900     1.1300    -2.5670 oh         1 U5F      -0.704000
     35 O3           5.0790    -0.7950    -3.2890 oh         1 U5F      -0.699000
     36 H1           2.7130     0.9840    -0.0610 h2         1 U5F       0.107700
     37 H2           2.9340    -1.4460    -1.7200 h1         1 U5F       0.091700
     38 H3           7.4010     1.0000     2.7420 ha         1 U5F       0.215000
     39 H4           4.9510    -3.2450    -1.8790 h1         1 U5F      -0.002300
     40 H5           4.9620    -3.0720    -0.1230 h1         1 U5F      -0.002300
     41 H6           5.9480    -0.3130     1.0580 h4         1 U5F       0.266000
     42 H7           4.7520     4.1760     2.3830 hn         1 U5F       0.290500
     43 H14          5.1470     1.5970    -1.5480 h1         1 U5F       0.030700
     44 H15          5.9310    -0.7080    -1.3790 h1         1 U5F       0.048700
     45 H16          3.6560     0.5350    -3.3130 ho         1 U5F       0.501000
     46 H17          6.0200    -0.6300    -3.5340 ho         1 U5F       0.472000
     47 O7           3.2260     3.1730     0.7950 o          1 U5F      -0.639000
     48 O6           6.8120     3.4340     3.4900 o          1 U5F      -0.654000
@<TRIPOS>BOND
     1     1     8 1   
     2     1    25 1   
     3     1    32 1   
     4     1    36 1   
     5     2     8 1   
     6     2     9 1   
     7     2    47 2   
     8     3     5 1   
     9     3     9 1   
    10     3    48 2   
    11     4     6 1   
    12     4    25 1   
    13     4    33 1   
    14     4    37 1   
    15     5     7 2   
    16     5    38 1   
    17     6    26 1   
    18     6    39 1   
    19     6    40 1   
    20     7     8 1   
    21     7    41 1   
    22     9    42 1   
    23    10    27 1   
    24    11    31 1   
    25    12    27 1   
    26    13    28 1   
    27    14    28 1   
    28    15    30 1   
    29    15    31 1   
    30    16    29 1   
    31    17    30 1   
    32    18    31 1   
    33    19    29 1   
    34    20    30 1   
    35    21    27 1   
    36    21    30 1   
    37    22    28 1   
    38    22    29 1   
    39    23    27 1   
    40    23    28 1   
    41    24    31 1   
    42    26    29 1   
    43    32    33 1   
    44    32    34 1   
    45    32    43 1   
    46    33    35 1   
    47    33    44 1   
    48    34    45 1   
    49    35    46 1   
@<TRIPOS>SUBSTRUCTURE
     1 U5F         1 TEMP              0 ****  ****    0 ROOT
