@<TRIPOS>MOLECULE
U5F
   48    49     1     0     0
SMALL
bcc


@<TRIPOS>ATOM
      1 C1           5.3130     1.4030    -1.0200 c5         1 U5F       0.321500
      2 C2           6.8910     2.6250     0.3670 c          1 U5F       0.810500
      3 C4           7.3030     2.0140     2.7290 c          1 U5F       0.685700
      4 C8           4.3500    -0.6540    -1.5420 c5         1 U5F       0.138100
      5 C5           6.3270     0.9690     2.5600 cc         1 U5F      -0.368200
      6 C9           3.7940    -1.7840    -0.7120 c3         1 U5F       0.212400
      7 C6           5.7160     0.8090     1.3730 cd         1 U5F      -0.014400
      8 N1           5.9800     1.5920     0.2900 n          1 U5F      -0.373000
      9 N3           7.4930     2.7760     1.5860 ns         1 U5F      -0.609500
     10 O01         -3.3400     0.2910     2.9140 o          1 U5F      -0.916000
     11 O02         -7.5390     0.2620    -2.2380 o          1 U5F      -0.926833
     12 O03         -4.1580    -1.9640     1.9050 o          1 U5F      -0.916000
     13 O04         -1.1230    -3.4990     1.7710 o          1 U5F      -0.887500
     14 O05         -1.9780    -2.6720    -0.5460 o          1 U5F      -0.887500
     15 O06         -5.2430     0.9100    -1.3140 os         1 U5F      -0.704800
     16 O1A          1.4690    -3.9500    -0.2970 o          1 U5F      -0.879500
     17 O1B         -4.3180     2.5560     0.4200 o          1 U5F      -0.853500
     18 O1G         -5.9870     1.8320    -3.5340 o          1 U5F      -0.926833
     19 O2A          2.2200    -2.6300     1.8120 o          1 U5F      -0.879500
     20 O2B         -6.0920     0.7960     1.1290 o          1 U5F      -0.853500
     21 O2G         -3.7460     0.0680     0.3850 os         1 U5F      -0.698800
     22 O3A          0.2280    -1.7970     0.4030 os         1 U5F      -0.674800
     23 O3B         -1.8080    -1.0410     1.4420 os         1 U5F      -0.711800
     24 O3G         -7.1410     2.6540    -1.3920 o          1 U5F      -0.926833
     25 O4           4.1940     0.5930    -0.8620 os         1 U5F      -0.324600
     26 O5           2.4180    -1.5740    -0.5160 os         1 U5F      -0.502200
     27 P01         -3.3860    -0.6880     1.7820 p5         1 U5F       1.542800
     28 P02         -1.2680    -2.4220     0.7440 p5         1 U5F       1.531800
     29 PA           1.6150    -2.6580     0.4430 p5         1 U5F       1.451800
     30 PB          -4.9580     1.2100     0.2390 p5         1 U5F       1.551800
     31 PG          -6.6170     1.4720    -2.1940 p5         1 U5F       1.362900
     32 C7           6.2330     0.7030    -2.0210 c5         1 U5F       0.060100
     33 C3           5.8480    -0.7640    -1.7990 c5         1 U5F       0.048100
     34 O2           5.8640     1.1290    -3.3040 oh         1 U5F      -0.581800
     35 O3           6.0990    -1.5870    -2.9010 oh         1 U5F      -0.576800
     36 H1           5.0170     2.3940    -1.3700 h2         1 U5F       0.107700
     37 H2           3.8120    -0.6100    -2.4970 h1         1 U5F       0.091700
     38 H3           6.0820     0.3250     3.3900 ha         1 U5F       0.165000
     39 H4           3.9900    -2.7200    -1.2510 h1         1 U5F      -0.002300
     40 H5           4.3320    -1.8460     0.2410 h1         1 U5F      -0.002300
     41 H6           4.9650     0.0470     1.2410 h4         1 U5F       0.216000
     42 H7           8.1660     3.5310     1.6450 hn         1 U5F       0.290500
     43 H14          7.2930     0.8890    -1.8180 h1         1 U5F       0.030700
     44 H15          6.3530    -1.1340    -0.8960 h1         1 U5F       0.048700
     45 H16          6.0520     0.4080    -3.9170 ho         1 U5F       0.402000
     46 H17          7.0170    -1.8770    -2.8700 ho         1 U5F       0.373000
     47 O7           7.1380     3.3460    -0.5790 o          1 U5F      -0.714500
     48 O6           7.9270     2.2580     3.7460 o          1 U5F      -0.729500
@<TRIPOS>BOND
     1     1     8 1   
     2     1    25 1   
     3     1    32 1   
     4     1    36 1   
     5     2     8 1   
     6     2     9 1   
     7     2    47 2   
     8     3     5 1   
     9     3     9 1   
    10     3    48 2   
    11     4     6 1   
    12     4    25 1   
    13     4    33 1   
    14     4    37 1   
    15     5     7 2   
    16     5    38 1   
    17     6    26 1   
    18     6    39 1   
    19     6    40 1   
    20     7     8 1   
    21     7    41 1   
    22     9    42 1   
    23    10    27 1   
    24    11    31 1   
    25    12    27 1   
    26    13    28 1   
    27    14    28 1   
    28    15    30 1   
    29    15    31 1   
    30    16    29 1   
    31    17    30 1   
    32    18    31 1   
    33    19    29 1   
    34    20    30 1   
    35    21    27 1   
    36    21    30 1   
    37    22    28 1   
    38    22    29 1   
    39    23    27 1   
    40    23    28 1   
    41    24    31 1   
    42    26    29 1   
    43    32    33 1   
    44    32    34 1   
    45    32    43 1   
    46    33    35 1   
    47    33    44 1   
    48    34    45 1   
    49    35    46 1   
@<TRIPOS>SUBSTRUCTURE
     1 U5F         1 TEMP              0 ****  ****    0 ROOT
