@<TRIPOS>MOLECULE
U5G
   84    86     1     0     0
SMALL
No Charge or Current Charge


@<TRIPOS>ATOM
      1 C28         12.1740   -21.3610    23.0730 c          1 U5G       0.650100
      2 N29         12.2680   -20.4040    22.0930 ns         1 U5G      -0.524900
      3 O34         12.8430   -21.3830    24.0910 o          1 U5G      -0.657100
      4 C30         13.1540   -19.2330    22.0780 c3         1 U5G       0.155400
      5 C31         14.6390   -19.6740    22.0950 c3         1 U5G      -0.105433
      6 C32         12.8700   -18.4670    20.7650 c3         1 U5G      -0.105433
      7 C33         12.8480   -18.3040    23.2800 c3         1 U5G      -0.105433
      8 N27         11.2340   -22.3070    22.7700 ns         1 U5G      -0.497900
      9 C22         10.8790   -23.4640    23.6280 c3         1 U5G       0.054700
     10 C23          9.5550   -23.2020    24.4490 c3         1 U5G      -0.040000
     11 C24          9.3150   -24.3220    25.4970 c3         1 U5G      -0.089767
     12 C25          8.3200   -23.1390    23.5040 c3         1 U5G      -0.089767
     13 C26          9.6500   -21.8560    25.2230 c3         1 U5G      -0.089767
     14 C21         10.8250   -24.7460    22.7260 c          1 U5G       0.585100
     15 O35         10.4860   -24.6730    21.5470 o          1 U5G      -0.634100
     16 N20         11.1150   -26.0080    23.2900 n          1 U5G      -0.391800
     17 C19         12.0960   -26.1670    24.3950 c5         1 U5G       0.132000
     18 C13         10.8850   -27.2570    22.5000 c5         1 U5G       0.057700
     19 C14         11.6990   -28.3250    23.2570 cx         1 U5G      -0.135700
     20 C15         12.4300   -27.6640    24.3940 cx         1 U5G      -0.119700
     21 C16         13.2150   -28.2050    23.2070 cx         1 U5G      -0.074000
     22 C17         13.9420   -27.2860    22.2090 c3         1 U5G      -0.066600
     23 C18         14.0370   -29.4770    23.4140 c3         1 U5G      -0.066600
     24 C12          9.3720   -27.6280    22.3980 c          1 U5G       0.590100
     25 O36          8.4620   -27.2530    23.1260 o          1 U5G      -0.589100
     26 N11          9.1860   -28.5080    21.3460 ns         1 U5G      -0.509900
     27 C05          7.8680   -28.9300    20.8370 c3         1 U5G       0.072700
     28 C06          7.5480   -28.1960    19.5050 c3         1 U5G      -0.079400
     29 C07          7.5250   -26.6580    19.6240 cy         1 U5G      -0.086700
     30 C10          6.3930   -25.9840    20.4730 cy         1 U5G      -0.089400
     31 C08          6.9470   -25.8280    18.4280 cy         1 U5G      -0.089400
     32 C09          6.5560   -24.7650    19.5070 cy         1 U5G      -0.094400
     33 O04          8.2310   -31.0840    21.9590 oh         1 U5G      -0.663000
     34 C03          7.7870   -30.4810    20.7150 c3         1 U5G       0.074300
     35 C02          6.3630   -30.9770    20.3070 c          1 U5G       0.613100
     36 N37          5.3570   -30.7200    21.1760 nt         1 U5G      -0.589000
     37 H1          11.6480   -20.5180    21.3040 hn         1 U5G       0.308500
     38 H2          14.9030   -20.1710    23.0350 hc         1 U5G       0.044478
     39 H3          14.8490   -20.3680    21.2720 hc         1 U5G       0.044478
     40 H4          15.3020   -18.8070    21.9830 hc         1 U5G       0.044478
     41 H5          13.5020   -17.5740    20.6870 hc         1 U5G       0.044478
     42 H6          13.0710   -19.0990    19.8910 hc         1 U5G       0.044478
     43 H7          11.8230   -18.1440    20.7170 hc         1 U5G       0.044478
     44 H8          13.0900   -18.7850    24.2340 hc         1 U5G       0.044478
     45 H9          13.4380   -17.3820    23.2170 hc         1 U5G       0.044478
     46 H10         11.7870   -18.0270    23.2980 hc         1 U5G       0.044478
     47 H11         10.7640   -22.2250    21.8780 hn         1 U5G       0.308500
     48 H12         11.6960   -23.6080    24.3440 h1         1 U5G       0.089700
     49 H13         10.1540   -24.3870    26.2000 hc         1 U5G       0.040478
     50 H14          8.4090   -24.1220    26.0810 hc         1 U5G       0.040478
     51 H15          9.1830   -25.3000    25.0220 hc         1 U5G       0.040478
     52 H16          7.4090   -22.9050    24.0680 hc         1 U5G       0.040478
     53 H17          8.4450   -22.3650    22.7380 hc         1 U5G       0.040478
     54 H18          8.1550   -24.0970    22.9960 hc         1 U5G       0.040478
     55 H19         10.5370   -21.8370    25.8680 hc         1 U5G       0.040478
     56 H20          9.7070   -20.9990    24.5400 hc         1 U5G       0.040478
     57 H21          8.7700   -21.7050    25.8600 hc         1 U5G       0.040478
     58 H22         12.9860   -25.5430    24.2360 h1         1 U5G       0.067200
     59 H23         11.6550   -25.8650    25.3520 h1         1 U5G       0.067200
     60 H24         11.2510   -27.1310    21.4730 h1         1 U5G       0.084700
     61 H25         11.2740   -29.3130    23.4160 hc         1 U5G       0.099700
     62 H26         12.5110   -28.1920    25.3420 hc         1 U5G       0.100700
     63 H27         14.9410   -27.0270    22.5800 hc         1 U5G       0.042533
     64 H28         14.0690   -27.7890    21.2430 hc         1 U5G       0.042533
     65 H29         13.4230   -26.3430    22.0110 hc         1 U5G       0.042533
     66 H30         13.5520   -30.1600    24.1220 hc         1 U5G       0.042533
     67 H31         14.1680   -30.0180    22.4700 hc         1 U5G       0.042533
     68 H32         15.0320   -29.2430    23.8110 hc         1 U5G       0.042533
     69 H33         10.0090   -28.7480    20.8040 hn         1 U5G       0.317500
     70 H34          7.1040   -28.6220    21.5640 h1         1 U5G       0.091700
     71 H35          6.5740   -28.5350    19.1330 hc         1 U5G       0.059200
     72 H36          8.2840   -28.4920    18.7470 hc         1 U5G       0.059200
     73 H37          8.5310   -26.3240    19.9090 hc         1 U5G       0.066700
     74 H38          5.4180   -26.4820    20.4180 hc         1 U5G       0.050950
     75 H39          6.6300   -25.7930    21.5250 hc         1 U5G       0.050950
     76 H40          7.6730   -25.5030    17.6750 hc         1 U5G       0.050950
     77 H41          6.0950   -26.2910    17.9140 hc         1 U5G       0.050950
     78 H42          7.3610   -24.0710    19.7790 hc         1 U5G       0.046200
     79 H43          5.6480   -24.1870    19.3050 hc         1 U5G       0.046200
     80 H44          8.9830   -30.5380    22.2810 ho         1 U5G       0.461000
     81 H45          8.4620   -30.7870    19.9040 h1         1 U5G       0.063700
     82 H46          4.4240   -31.0380    20.9600 hn         1 U5G       0.322000
     83 H47          5.5590   -30.2750    22.0580 hn         1 U5G       0.322000
     84 O01          6.1310   -31.5800    19.2700 o          1 U5G      -0.610100
@<TRIPOS>BOND
     1     1     2 1   
     2     1     3 2   
     3     1     8 1   
     4     2     4 1   
     5     2    37 1   
     6     4     5 1   
     7     4     6 1   
     8     4     7 1   
     9     5    38 1   
    10     5    39 1   
    11     5    40 1   
    12     6    41 1   
    13     6    42 1   
    14     6    43 1   
    15     7    44 1   
    16     7    45 1   
    17     7    46 1   
    18     8     9 1   
    19     8    47 1   
    20     9    10 1   
    21     9    14 1   
    22     9    48 1   
    23    10    11 1   
    24    10    12 1   
    25    10    13 1   
    26    11    49 1   
    27    11    50 1   
    28    11    51 1   
    29    12    52 1   
    30    12    53 1   
    31    12    54 1   
    32    13    55 1   
    33    13    56 1   
    34    13    57 1   
    35    14    15 2   
    36    14    16 1   
    37    16    17 1   
    38    16    18 1   
    39    17    20 1   
    40    17    58 1   
    41    17    59 1   
    42    18    19 1   
    43    18    24 1   
    44    18    60 1   
    45    19    20 1   
    46    19    21 1   
    47    19    61 1   
    48    20    21 1   
    49    20    62 1   
    50    21    22 1   
    51    21    23 1   
    52    22    63 1   
    53    22    64 1   
    54    22    65 1   
    55    23    66 1   
    56    23    67 1   
    57    23    68 1   
    58    24    25 2   
    59    24    26 1   
    60    26    27 1   
    61    26    69 1   
    62    27    28 1   
    63    27    34 1   
    64    27    70 1   
    65    28    29 1   
    66    28    71 1   
    67    28    72 1   
    68    29    30 1   
    69    29    31 1   
    70    29    73 1   
    71    30    32 1   
    72    30    74 1   
    73    30    75 1   
    74    31    32 1   
    75    31    76 1   
    76    31    77 1   
    77    32    78 1   
    78    32    79 1   
    79    33    34 1   
    80    33    80 1   
    81    34    35 1   
    82    34    81 1   
    83    35    36 1   
    84    35    84 2   
    85    36    82 1   
    86    36    83 1   
@<TRIPOS>SUBSTRUCTURE
     1 U5G         1 TEMP              0 ****  ****    0 ROOT
