@<TRIPOS>MOLECULE
U5G
   84    86     1     0     0
SMALL
abcg2


@<TRIPOS>ATOM
      1 C28         12.1140   -21.9220    22.8520 c          1 U5G       0.650100
      2 N29         12.5930   -20.9680    22.0220 ns         1 U5G      -0.524900
      3 O34         12.8000   -22.5280    23.6680 o          1 U5G      -0.657100
      4 C30         13.9880   -20.5290    21.9280 c3         1 U5G       0.155400
      5 C31         14.8980   -21.6810    21.4990 c3         1 U5G      -0.105433
      6 C32         14.0110   -19.4440    20.8510 c3         1 U5G      -0.105433
      7 C33         14.4710   -19.9290    23.2490 c3         1 U5G      -0.105433
      8 N27         10.7650   -22.1460    22.7320 ns         1 U5G      -0.497900
      9 C22         10.1540   -23.2760    23.3850 c3         1 U5G       0.054700
     10 C23          8.6420   -23.0320    23.6450 c3         1 U5G      -0.040000
     11 C24          8.0270   -24.3080    24.2210 c3         1 U5G      -0.089767
     12 C25          7.8720   -22.6290    22.3860 c3         1 U5G      -0.089767
     13 C26          8.5250   -21.9130    24.6830 c3         1 U5G      -0.089767
     14 C21         10.4080   -24.5390    22.5580 c          1 U5G       0.585100
     15 O35         10.1330   -24.5560    21.3630 o          1 U5G      -0.634100
     16 N20         10.9440   -25.6150    23.1620 n          1 U5G      -0.391800
     17 C19         11.3690   -25.7370    24.5550 c5         1 U5G       0.132000
     18 C13         11.1440   -26.8360    22.3980 c5         1 U5G       0.057700
     19 C14         12.0500   -27.6810    23.2640 cx         1 U5G      -0.135700
     20 C15         12.1880   -27.0010    24.5930 cx         1 U5G      -0.119700
     21 C16         13.3820   -27.1290    23.6860 cx         1 U5G      -0.074000
     22 C17         14.0140   -25.9380    23.0030 c3         1 U5G      -0.066600
     23 C18         14.3950   -28.1770    24.0920 c3         1 U5G      -0.066600
     24 C12          9.8080   -27.5590    22.2270 c          1 U5G       0.590100
     25 O36          9.1300   -27.8380    23.2000 o          1 U5G      -0.589100
     26 N11          9.4930   -27.8910    20.9590 ns         1 U5G      -0.509900
     27 C05          8.2510   -28.5310    20.5680 c3         1 U5G       0.072700
     28 C06          7.3400   -27.5510    19.8300 c3         1 U5G      -0.079400
     29 C07          6.8770   -26.4200    20.7230 cy         1 U5G      -0.086700
     30 C10          5.9480   -26.7580    21.9050 cy         1 U5G      -0.089400
     31 C08          5.7900   -25.4570    20.2040 cy         1 U5G      -0.089400
     32 C09          5.1800   -25.4550    21.6180 cy         1 U5G      -0.094400
     33 O04          9.5370   -30.5910    20.4150 oh         1 U5G      -0.663000
     34 C03          8.6030   -29.7890    19.7410 c3         1 U5G       0.074300
     35 C02          7.3510   -30.6220    19.4890 c          1 U5G       0.613100
     36 N37          7.0550   -31.5000    20.4530 nt         1 U5G      -0.589000
     37 H1          11.9400   -20.5070    21.4090 hn         1 U5G       0.308500
     38 H2          14.9230   -22.4750    22.2430 hc         1 U5G       0.044478
     39 H3          14.5610   -22.1080    20.5520 hc         1 U5G       0.044478
     40 H4          15.9180   -21.3190    21.3580 hc         1 U5G       0.044478
     41 H5          15.0250   -19.0710    20.7130 hc         1 U5G       0.044478
     42 H6          13.6620   -19.8290    19.8910 hc         1 U5G       0.044478
     43 H7          13.3790   -18.5980    21.1300 hc         1 U5G       0.044478
     44 H8          14.4850   -20.6690    24.0460 hc         1 U5G       0.044478
     45 H9          15.4840   -19.5390    23.1350 hc         1 U5G       0.044478
     46 H10         13.8290   -19.1010    23.5560 hc         1 U5G       0.044478
     47 H11         10.3190   -21.8350    21.8840 hn         1 U5G       0.308500
     48 H12         10.6160   -23.3710    24.3670 h1         1 U5G       0.089700
     49 H13          8.5540   -24.6340    25.1200 hc         1 U5G       0.040478
     50 H14          6.9860   -24.1330    24.4980 hc         1 U5G       0.040478
     51 H15          8.0360   -25.1330    23.5080 hc         1 U5G       0.040478
     52 H16          6.8270   -22.4460    22.6430 hc         1 U5G       0.040478
     53 H17          8.2470   -21.7030    21.9440 hc         1 U5G       0.040478
     54 H18          7.8940   -23.4040    21.6210 hc         1 U5G       0.040478
     55 H19          9.0170   -22.1920    25.6180 hc         1 U5G       0.040478
     56 H20          8.9740   -20.9850    24.3310 hc         1 U5G       0.040478
     57 H21          7.4770   -21.7110    24.9090 hc         1 U5G       0.040478
     58 H22         11.9410   -24.8590    24.8570 h1         1 U5G       0.067200
     59 H23         10.5100   -25.8310    25.2240 h1         1 U5G       0.067200
     60 H24         11.5940   -26.6030    21.4280 h1         1 U5G       0.084700
     61 H25         11.9420   -28.7570    23.1900 hc         1 U5G       0.099700
     62 H26         12.1690   -27.5690    25.5160 hc         1 U5G       0.100700
     63 H27         14.8770   -25.5970    23.5790 hc         1 U5G       0.042533
     64 H28         14.3750   -26.2150    22.0110 hc         1 U5G       0.042533
     65 H29         13.3540   -25.0810    22.8940 hc         1 U5G       0.042533
     66 H30         13.9290   -29.0230    24.5990 hc         1 U5G       0.042533
     67 H31         14.9250   -28.5640    23.2190 hc         1 U5G       0.042533
     68 H32         15.1380   -27.7540    24.7710 hc         1 U5G       0.042533
     69 H33         10.0360   -27.4610    20.2230 hn         1 U5G       0.317500
     70 H34          7.7600   -28.8540    21.4890 h1         1 U5G       0.091700
     71 H35          6.4640   -28.0840    19.4550 hc         1 U5G       0.059200
     72 H36          7.8640   -27.1600    18.9500 hc         1 U5G       0.059200
     73 H37          7.7330   -25.8390    21.0780 hc         1 U5G       0.066700
     74 H38          5.3350   -27.6380    21.6880 hc         1 U5G       0.050950
     75 H39          6.4010   -26.8890    22.8870 hc         1 U5G       0.050950
     76 H40          6.1140   -24.5030    19.7840 hc         1 U5G       0.050950
     77 H41          5.1310   -25.9470    19.4820 hc         1 U5G       0.050950
     78 H42          5.5610   -24.6270    22.2180 hc         1 U5G       0.046200
     79 H43          4.0930   -25.4740    21.7060 hc         1 U5G       0.046200
     80 H44         10.2500   -30.0180    20.7230 ho         1 U5G       0.461000
     81 H45          8.9810   -29.4690    18.7600 h1         1 U5G       0.063700
     82 H46          6.2420   -32.0880    20.3730 hn         1 U5G       0.322000
     83 H47          7.6790   -31.6630    21.2250 hn         1 U5G       0.322000
     84 O01          6.6660   -30.4490    18.4910 o          1 U5G      -0.610100
@<TRIPOS>BOND
     1     1     2 1   
     2     1     3 2   
     3     1     8 1   
     4     2     4 1   
     5     2    37 1   
     6     4     5 1   
     7     4     6 1   
     8     4     7 1   
     9     5    38 1   
    10     5    39 1   
    11     5    40 1   
    12     6    41 1   
    13     6    42 1   
    14     6    43 1   
    15     7    44 1   
    16     7    45 1   
    17     7    46 1   
    18     8     9 1   
    19     8    47 1   
    20     9    10 1   
    21     9    14 1   
    22     9    48 1   
    23    10    11 1   
    24    10    12 1   
    25    10    13 1   
    26    11    49 1   
    27    11    50 1   
    28    11    51 1   
    29    12    52 1   
    30    12    53 1   
    31    12    54 1   
    32    13    55 1   
    33    13    56 1   
    34    13    57 1   
    35    14    15 2   
    36    14    16 1   
    37    16    17 1   
    38    16    18 1   
    39    17    20 1   
    40    17    58 1   
    41    17    59 1   
    42    18    19 1   
    43    18    24 1   
    44    18    60 1   
    45    19    20 1   
    46    19    21 1   
    47    19    61 1   
    48    20    21 1   
    49    20    62 1   
    50    21    22 1   
    51    21    23 1   
    52    22    63 1   
    53    22    64 1   
    54    22    65 1   
    55    23    66 1   
    56    23    67 1   
    57    23    68 1   
    58    24    25 2   
    59    24    26 1   
    60    26    27 1   
    61    26    69 1   
    62    27    28 1   
    63    27    34 1   
    64    27    70 1   
    65    28    29 1   
    66    28    71 1   
    67    28    72 1   
    68    29    30 1   
    69    29    31 1   
    70    29    73 1   
    71    30    32 1   
    72    30    74 1   
    73    30    75 1   
    74    31    32 1   
    75    31    76 1   
    76    31    77 1   
    77    32    78 1   
    78    32    79 1   
    79    33    34 1   
    80    33    80 1   
    81    34    35 1   
    82    34    81 1   
    83    35    36 1   
    84    35    84 2   
    85    36    82 1   
    86    36    83 1   
@<TRIPOS>SUBSTRUCTURE
     1 U5G         1 TEMP              0 ****  ****    0 ROOT
