@<TRIPOS>MOLECULE
U5H
   25    26     1     0     0
SMALL
No Charge or Current Charge


@<TRIPOS>ATOM
      1 C02          3.9060    -4.6010     5.9980 c          1 U5H       0.558000
      2 C04          1.4880    -4.3690     5.4340 c3         1 U5H       0.097300
      3 C05          2.6160    -6.6350     6.1130 c5         1 U5H       0.165000
      4 C06          1.4340    -6.9110     7.0440 ca         1 U5H      -0.156300
      5 C07          1.1970    -6.1430     8.2070 ca         1 U5H       0.355900
      6 C09         -0.6970    -7.3630     8.7490 ca         1 U5H       0.340900
      7 C10         -0.5470    -8.1760     7.6150 ca         1 U5H      -0.165000
      8 C11          0.5320    -7.9500     6.7460 ca         1 U5H      -0.065000
      9 C12          3.9470    -6.8280     6.9190 c5         1 U5H      -0.086400
     10 C13          4.8540    -5.7730     6.2320 c5         1 U5H      -0.169400
     11 N03          2.6620    -5.1950     5.7820 n          1 U5H      -0.417800
     12 N08          0.1570    -6.3580     9.0480 nb         1 U5H      -0.665000
     13 O01          4.0910    -3.4050     6.1700 o          1 U5H      -0.544000
     14 H1           0.6620    -5.0130     5.1040 h1         1 U5H       0.043033
     15 H2           1.1670    -3.7920     6.3100 h1         1 U5H       0.043033
     16 H3           1.7460    -3.6790     4.6210 h1         1 U5H       0.043033
     17 H4           2.5900    -7.2470     5.2010 h1         1 U5H       0.051700
     18 H5           1.8620    -5.3220     8.4760 h4         1 U5H       0.029100
     19 H6          -1.5260    -7.5180     9.4390 h4         1 U5H       0.021100
     20 H7          -1.2620    -8.9700     7.4180 ha         1 U5H       0.126000
     21 H8           0.6650    -8.5700     5.8610 ha         1 U5H       0.118000
     22 H9           3.8380    -6.6000     7.9860 hc         1 U5H       0.060700
     23 H10          4.3390    -7.8490     6.8430 hc         1 U5H       0.060700
     24 H11          5.1490    -6.1670     5.2530 hc         1 U5H       0.077700
     25 H12          5.7450    -5.4730     6.7950 hc         1 U5H       0.077700
@<TRIPOS>BOND
     1     1    10 1   
     2     1    11 1   
     3     1    13 2   
     4     2    11 1   
     5     2    14 1   
     6     2    15 1   
     7     2    16 1   
     8     3     4 1   
     9     3     9 1   
    10     3    11 1   
    11     3    17 1   
    12     4     5 ar  
    13     4     8 ar  
    14     5    12 ar  
    15     5    18 1   
    16     6     7 ar  
    17     6    12 ar  
    18     6    19 1   
    19     7     8 ar  
    20     7    20 1   
    21     8    21 1   
    22     9    10 1   
    23     9    22 1   
    24     9    23 1   
    25    10    24 1   
    26    10    25 1   
@<TRIPOS>SUBSTRUCTURE
     1 U5H         1 TEMP              0 ****  ****    0 ROOT
