@<TRIPOS>MOLECULE
U5H
   25    26     1     0     0
SMALL
bcc


@<TRIPOS>ATOM
      1 C02          3.9300    -4.6370     5.9410 c          1 U5H       0.700500
      2 C04          1.5620    -4.2930     5.4630 c3         1 U5H       0.097300
      3 C05          2.5490    -6.5180     6.2120 c5         1 U5H       0.165000
      4 C06          1.3750    -6.8710     7.0820 ca         1 U5H      -0.221600
      5 C07          1.0840    -6.1470     8.2360 ca         1 U5H       0.421200
      6 C09         -0.6940    -7.4710     8.7510 ca         1 U5H       0.406200
      7 C10         -0.4980    -8.2580     7.6280 ca         1 U5H      -0.248300
      8 C11          0.5530    -7.9460     6.7790 ca         1 U5H      -0.083000
      9 C12          3.9060    -6.8410     6.8600 c5         1 U5H      -0.086400
     10 C13          4.8460    -5.7870     6.2920 c5         1 U5H      -0.169400
     11 N03          2.6600    -5.0910     5.9560 n          1 U5H      -0.484800
     12 N08          0.0780    -6.4310     9.0520 nb         1 U5H      -0.665000
     13 O01          4.2590    -3.4990     5.6520 o          1 U5H      -0.619500
     14 H1           0.6640    -4.9040     5.4120 h1         1 U5H       0.043033
     15 H2           1.3560    -3.4500     6.1220 h1         1 U5H       0.043033
     16 H3           1.7690    -3.9080     4.4640 h1         1 U5H       0.043033
     17 H4           2.4500    -7.0600     5.2630 h1         1 U5H       0.051700
     18 H5           1.6950    -5.2910     8.5080 h4         1 U5H       0.029100
     19 H6          -1.5080    -7.6830     9.4350 h4         1 U5H       0.021100
     20 H7          -1.1580    -9.0900     7.4210 ha         1 U5H       0.144000
     21 H8           0.7300    -8.5320     5.8850 ha         1 U5H       0.136000
     22 H9           3.8310    -6.7310     7.9430 hc         1 U5H       0.060700
     23 H10          4.2130    -7.8640     6.6520 hc         1 U5H       0.060700
     24 H11          5.3320    -6.1250     5.3720 hc         1 U5H       0.077700
     25 H12          5.6320    -5.4790     6.9800 hc         1 U5H       0.077700
@<TRIPOS>BOND
     1     1    10 1   
     2     1    11 1   
     3     1    13 2   
     4     2    11 1   
     5     2    14 1   
     6     2    15 1   
     7     2    16 1   
     8     3     4 1   
     9     3     9 1   
    10     3    11 1   
    11     3    17 1   
    12     4     5 ar  
    13     4     8 ar  
    14     5    12 ar  
    15     5    18 1   
    16     6     7 ar  
    17     6    12 ar  
    18     6    19 1   
    19     7     8 ar  
    20     7    20 1   
    21     8    21 1   
    22     9    10 1   
    23     9    22 1   
    24     9    23 1   
    25    10    24 1   
    26    10    25 1   
@<TRIPOS>SUBSTRUCTURE
     1 U5H         1 TEMP              0 ****  ****    0 ROOT
