@<TRIPOS>MOLECULE
U5I
  110   117     1     0     0
SMALL
No Charge or Current Charge


@<TRIPOS>ATOM
      1 C10         33.1340   -20.7080     7.7030 ca         1 U5I       0.340300
      2 C12         34.8090   -21.7590     6.4960 ca         1 U5I       0.320900
      3 C13         34.8060   -20.7460     5.5300 ca         1 U5I      -0.159000
      4 C14         32.0310   -18.5080     7.0010 c6         1 U5I      -0.004900
      5 C15         30.9850   -18.7920     8.0660 c2         1 U5I      -0.196200
      6 C16         31.0700   -19.8080     8.9340 c2         1 U5I      -0.244200
      7 C17         32.2260   -20.7930     8.9350 c6         1 U5I      -0.084500
      8 C2          33.7180   -17.8970     2.2770 ca         1 U5I       0.285000
      9 C22         36.4880   -11.6810    -1.4150 c3         1 U5I       0.160600
     10 C23         36.3020   -11.4590    -2.9340 c3         1 U5I       0.156600
     11 C25         36.7150   -12.6730    -5.0190 c3         1 U5I       0.161600
     12 C26         35.5160   -13.6520    -5.0710 c3         1 U5I       0.138600
     13 C27         34.8450   -18.3120    -3.6690 ca         1 U5I      -0.057000
     14 C28         33.4910   -18.2600    -4.0380 ca         1 U5I      -0.151000
     15 C29         32.9580   -17.0940    -4.6060 ca         1 U5I      -0.086000
     16 C3          33.9720   -16.5620     2.6340 ca         1 U5I      -0.132000
     17 C30         33.7800   -15.9740    -4.8040 ca         1 U5I      -0.205000
     18 C31         35.1430   -16.0190    -4.4350 ca         1 U5I       0.151100
     19 C32         35.6880   -17.1930    -3.8710 ca         1 U5I      -0.122300
     20 C33         37.1710   -17.1920    -3.4730 c3         1 U5I       0.280100
     21 C36         37.8340   -19.6240    -3.9720 ca         1 U5I       0.292000
     22 C37         37.8800   -19.4870    -5.3710 ca         1 U5I      -0.138000
     23 C38         37.9830   -20.6220    -6.2100 ca         1 U5I      -0.111600
     24 C39         38.0440   -21.8990    -5.6050 ca         1 U5I      -0.114000
     25 C4          34.2300   -16.2040     3.9790 ca         1 U5I      -0.111600
     26 C40         38.0170   -22.0570    -4.1990 cp         1 U5I      -0.074000
     27 C41         37.9000   -20.9000    -3.3980 ca         1 U5I      -0.193000
     28 C42         38.0590   -23.4120    -3.5690 cp         1 U5I       0.069000
     29 C43         39.1150   -24.3450    -3.7690 ca         1 U5I      -0.073000
     30 C44         39.0390   -25.6220    -3.1450 ca         1 U5I       0.264000
     31 C46         37.0080   -25.0850    -2.1480 ca         1 U5I       0.352900
     32 C47         37.0020   -23.8120    -2.7260 ca         1 U5I      -0.188000
     33 C48         40.2470   -24.0240    -4.5560 ca         1 U5I      -0.055000
     34 C49         41.2760   -24.9600    -4.7440 ca         1 U5I      -0.135000
     35 C5          34.2140   -17.2250     4.9580 ca         1 U5I      -0.113000
     36 C50         41.1930   -26.2230    -4.1450 ca         1 U5I      -0.108000
     37 C51         40.0820   -26.5460    -3.3500 ca         1 U5I      -0.105000
     38 C52         38.0230   -20.4720    -7.7260 c          1 U5I       0.713600
     39 C55         35.6420   -13.0850     0.3990 c3         1 U5I       0.149600
     40 C56         36.6360   -14.2710     0.4540 c3         1 U5I       0.145600
     41 C58         36.5120   -16.7100     0.0380 ca         1 U5I       0.167100
     42 C59         37.9080   -16.8810     0.1820 ca         1 U5I      -0.201000
     43 C6          33.9380   -18.5720     4.6220 cp         1 U5I      -0.071000
     44 C60         38.4670   -18.1680     0.1850 ca         1 U5I      -0.082000
     45 C61         37.6400   -19.2920     0.0440 ca         1 U5I      -0.168000
     46 C62         36.2530   -19.1310    -0.1020 ca         1 U5I      -0.060000
     47 C63         35.6780   -17.8430    -0.1030 ca         1 U5I      -0.112300
     48 C64         34.1600   -17.7030    -0.2290 c3         1 U5I       0.266100
     49 C7          33.7000   -18.8890     3.2660 ca         1 U5I      -0.195000
     50 C8          33.9310   -19.6460     5.6590 cp         1 U5I       0.039000
     51 C9          33.0600   -19.6310     6.7840 ca         1 U5I      -0.100300
     52 N11         33.9920   -21.7480     7.5680 nb         1 U5I      -0.703000
     53 N35         37.7160   -18.5200    -3.1290 nu         1 U5I      -0.985200
     54 N45         38.0000   -25.9770    -2.3540 nb         1 U5I      -0.697000
     55 O19         34.4480   -13.8970     3.4990 o          1 U5I      -0.726500
     56 O20         34.8100   -14.5080     5.5250 o          1 U5I      -0.726500
     57 O21         35.4960   -12.6300    -0.9650 os         1 U5I      -0.442000
     58 O24         37.0870   -12.4430    -3.6420 os         1 U5I      -0.434000
     59 O34         35.9780   -14.9320    -4.6010 os         1 U5I      -0.331100
     60 O53         38.0770   -21.4820    -8.4140 o          1 U5I      -0.721500
     61 O54         38.0040   -19.3470    -8.2050 o          1 U5I      -0.721500
     62 H1          35.4860   -22.6090     6.4090 h4         1 U5I       0.002100
     63 H2          35.4870   -20.8090     4.6870 ha         1 U5I       0.128000
     64 H3          32.5510   -17.5790     7.2660 hc         1 U5I       0.081200
     65 H4          31.5160   -18.3080     6.0510 hc         1 U5I       0.081200
     66 H5          30.1350   -18.1060     8.0990 ha         1 U5I       0.166000
     67 H6          30.2920   -19.9680     9.6840 ha         1 U5I       0.159000
     68 H7          31.8170   -21.8100     9.0090 hc         1 U5I       0.053700
     69 H8          32.8280   -20.6400     9.8400 hc         1 U5I       0.053700
     70 H9          37.5080   -12.0350    -1.2150 h1         1 U5I       0.023200
     71 H10         36.3520   -10.7240    -0.8950 h1         1 U5I       0.023200
     72 H11         36.6440   -10.4500    -3.1990 h1         1 U5I       0.022700
     73 H12         35.2350   -11.5300    -3.1830 h1         1 U5I       0.022700
     74 H13         37.5540   -13.1160    -5.5710 h1         1 U5I       0.047200
     75 H14         36.4490   -11.7310    -5.5180 h1         1 U5I       0.047200
     76 H15         34.6940   -13.2760    -4.4490 h1         1 U5I       0.035200
     77 H16         35.1600   -13.7300    -6.1070 h1         1 U5I       0.035200
     78 H17         35.2270   -19.2250    -3.2200 ha         1 U5I       0.127000
     79 H18         32.8530   -19.1260    -3.8790 ha         1 U5I       0.107000
     80 H19         31.9080   -17.0580    -4.8900 ha         1 U5I       0.097000
     81 H20         33.9720   -15.7990     1.8630 ha         1 U5I       0.143000
     82 H21         33.3440   -15.0820    -5.2430 ha         1 U5I       0.103000
     83 H22         37.2890   -16.5150    -2.6150 h1         1 U5I       0.066200
     84 H23         37.7610   -16.7570    -4.2920 h1         1 U5I       0.066200
     85 H24         37.8290   -18.4970    -5.8110 ha         1 U5I       0.139000
     86 H25         38.1100   -22.7890    -6.2290 ha         1 U5I       0.131000
     87 H26         37.8630   -21.0050    -2.3190 ha         1 U5I       0.093000
     88 H27         36.1920   -25.4060    -1.5030 h4         1 U5I       0.003100
     89 H28         36.1710   -23.1410    -2.5320 ha         1 U5I       0.127000
     90 H29         40.3460   -23.0450    -5.0180 ha         1 U5I       0.146000
     91 H30         42.1400   -24.7020    -5.3520 ha         1 U5I       0.109000
     92 H31         34.4290   -16.9780     5.9940 ha         1 U5I       0.128000
     93 H32         41.9890   -26.9500    -4.2900 ha         1 U5I       0.097000
     94 H33         40.0290   -27.5240    -2.8800 ha         1 U5I       0.113000
     95 H34         36.0000   -12.2750     1.0490 h1         1 U5I       0.073200
     96 H35         34.6750   -13.4200     0.7960 h1         1 U5I       0.073200
     97 H36         37.5070   -14.0660    -0.1800 h1         1 U5I       0.040200
     98 H37         36.9810   -14.3970     1.4890 h1         1 U5I       0.040200
     99 H38         38.5710   -16.0280     0.2860 ha         1 U5I       0.111000
    100 H39         39.5420   -18.2950     0.2970 ha         1 U5I       0.102000
    101 H40         38.0730   -20.2890     0.0550 ha         1 U5I       0.106000
    102 H41         35.6190   -20.0090    -0.2040 ha         1 U5I       0.115000
    103 H42         33.8750   -16.6500    -0.3630 h1         1 U5I       0.058700
    104 H43         33.8290   -18.2340    -1.1310 h1         1 U5I       0.058700
    105 H44         33.4990   -19.9200     2.9890 ha         1 U5I       0.088000
    106 H45         33.1720   -19.2340     0.8480 hn         1 U5I       0.456000
    107 H46         37.7250   -18.7390    -2.1310 hn         1 U5I       0.478000
    108 C18         34.5200   -14.7590     4.3630 c          1 U5I       0.716600
    109 N1          33.4800   -18.2680     0.9530 nu         1 U5I      -0.970200
    110 O57         35.9380   -15.4540     0.0200 os         1 U5I      -0.332100
@<TRIPOS>BOND
     1     1     7 1   
     2     1    51 ar  
     3     1    52 ar  
     4     2     3 ar  
     5     2    52 ar  
     6     2    62 1   
     7     3    50 ar  
     8     3    63 1   
     9     4     5 1   
    10     4    51 1   
    11     4    64 1   
    12     4    65 1   
    13     5     6 2   
    14     5    66 1   
    15     6     7 1   
    16     6    67 1   
    17     7    68 1   
    18     7    69 1   
    19     8    16 ar  
    20     8    49 ar  
    21     8   109 1   
    22     9    10 1   
    23     9    57 1   
    24     9    70 1   
    25     9    71 1   
    26    10    58 1   
    27    10    72 1   
    28    10    73 1   
    29    11    12 1   
    30    11    58 1   
    31    11    74 1   
    32    11    75 1   
    33    12    59 1   
    34    12    76 1   
    35    12    77 1   
    36    13    14 ar  
    37    13    19 ar  
    38    13    78 1   
    39    14    15 ar  
    40    14    79 1   
    41    15    17 ar  
    42    15    80 1   
    43    16    25 ar  
    44    16    81 1   
    45    17    18 ar  
    46    17    82 1   
    47    18    19 ar  
    48    18    59 1   
    49    19    20 1   
    50    20    53 1   
    51    20    83 1   
    52    20    84 1   
    53    21    22 ar  
    54    21    27 ar  
    55    21    53 1   
    56    22    23 ar  
    57    22    85 1   
    58    23    24 ar  
    59    23    38 1   
    60    24    26 ar  
    61    24    86 1   
    62    25    35 ar  
    63    25   108 1   
    64    26    27 ar  
    65    26    28 1   
    66    27    87 1   
    67    28    29 ar  
    68    28    32 ar  
    69    29    30 ar  
    70    29    33 ar  
    71    30    37 ar  
    72    30    54 ar  
    73    31    32 ar  
    74    31    54 ar  
    75    31    88 1   
    76    32    89 1   
    77    33    34 ar  
    78    33    90 1   
    79    34    36 ar  
    80    34    91 1   
    81    35    43 ar  
    82    35    92 1   
    83    36    37 ar  
    84    36    93 1   
    85    37    94 1   
    86    38    60 1   
    87    38    61 1   
    88    39    40 1   
    89    39    57 1   
    90    39    95 1   
    91    39    96 1   
    92    40    97 1   
    93    40    98 1   
    94    40   110 1   
    95    41    42 ar  
    96    41    47 ar  
    97    41   110 1   
    98    42    44 ar  
    99    42    99 1   
   100    43    49 ar  
   101    43    50 1   
   102    44    45 ar  
   103    44   100 1   
   104    45    46 ar  
   105    45   101 1   
   106    46    47 ar  
   107    46   102 1   
   108    47    48 1   
   109    48   103 1   
   110    48   104 1   
   111    48   109 1   
   112    49   105 1   
   113    50    51 ar  
   114    53   107 1   
   115    55   108 1   
   116    56   108 1   
   117   106   109 1   
@<TRIPOS>SUBSTRUCTURE
     1 U5I         1 TEMP              0 ****  ****    0 ROOT
