@<TRIPOS>MOLECULE
U5I
  110   117     1     0     0
SMALL
abcg2


@<TRIPOS>ATOM
      1 C10         30.4620   -18.7300     7.4730 ca         1 U5I       0.340300
      2 C12         31.5130   -20.7500     7.2870 ca         1 U5I       0.320900
      3 C13         32.4550   -20.2410     6.4080 ca         1 U5I      -0.159000
      4 C14         31.2140   -16.6690     6.2120 c6         1 U5I      -0.004900
      5 C15         29.9370   -16.0460     6.6690 c2         1 U5I      -0.196200
      6 C16         29.0930   -16.6240     7.5150 c2         1 U5I      -0.244200
      7 C17         29.3200   -17.9780     8.0990 c6         1 U5I      -0.084500
      8 C2          34.3350   -18.2650     2.8900 ca         1 U5I       0.285000
      9 C22         36.7060   -12.2900    -0.8260 c3         1 U5I       0.160600
     10 C23         35.8630   -12.1750    -2.0710 c3         1 U5I       0.156600
     11 C25         35.2970   -13.4380    -3.9940 c3         1 U5I       0.161600
     12 C26         34.3570   -14.5580    -3.6100 c3         1 U5I       0.138600
     13 C27         34.8400   -19.2590    -2.8470 ca         1 U5I      -0.057000
     14 C28         33.4750   -19.4160    -2.6280 ca         1 U5I      -0.151000
     15 C29         32.6440   -18.3120    -2.6960 ca         1 U5I      -0.086000
     16 C3          35.2460   -17.3030     3.3390 ca         1 U5I      -0.132000
     17 C30         33.1650   -17.0540    -2.9820 ca         1 U5I      -0.205000
     18 C31         34.5310   -16.9090    -3.2040 ca         1 U5I       0.151100
     19 C32         35.3870   -18.0200    -3.1360 ca         1 U5I      -0.122300
     20 C33         36.8720   -17.8150    -3.3560 c3         1 U5I       0.280100
     21 C36         37.7530   -19.9590    -4.2230 ca         1 U5I       0.292000
     22 C37         37.0870   -19.8450    -5.4490 ca         1 U5I      -0.138000
     23 C38         37.1940   -20.8340    -6.4200 ca         1 U5I      -0.111600
     24 C39         37.9780   -21.9550    -6.1780 ca         1 U5I      -0.114000
     25 C4          35.2320   -16.8550     4.6550 ca         1 U5I      -0.111600
     26 C40         38.6550   -22.0850    -4.9650 cp         1 U5I      -0.074000
     27 C41         38.5360   -21.0990    -3.9950 ca         1 U5I      -0.193000
     28 C42         39.4710   -23.2850    -4.6880 cp         1 U5I       0.069000
     29 C43         40.5020   -23.7230    -5.5690 ca         1 U5I      -0.073000
     30 C44         41.1900   -24.9220    -5.2440 ca         1 U5I       0.264000
     31 C46         39.9980   -25.1940    -3.3220 ca         1 U5I       0.352900
     32 C47         39.2470   -24.0280    -3.5560 ca         1 U5I      -0.188000
     33 C48         40.8970   -23.0110    -6.7270 ca         1 U5I      -0.055000
     34 C49         41.8930   -23.4850    -7.5370 ca         1 U5I      -0.135000
     35 C5          34.2980   -17.3700     5.5470 ca         1 U5I      -0.113000
     36 C50         42.5480   -24.6950    -7.2310 ca         1 U5I      -0.108000
     37 C51         42.2070   -25.3940    -6.1060 ca         1 U5I      -0.105000
     38 C52         36.4440   -20.6940    -7.7460 c          1 U5I       0.713600
     39 C55         37.1610   -13.8120     0.9350 c3         1 U5I       0.149600
     40 C56         37.9460   -15.0300     0.5000 c3         1 U5I       0.145600
     41 C58         37.4340   -17.3570     0.2360 ca         1 U5I       0.167100
     42 C59         38.7690   -17.7200     0.0620 ca         1 U5I      -0.201000
     43 C6          33.3880   -18.3340     5.1210 cp         1 U5I      -0.071000
     44 C60         39.1240   -19.0630     0.0230 ca         1 U5I      -0.082000
     45 C61         38.1560   -20.0470     0.1580 ca         1 U5I      -0.168000
     46 C62         36.8290   -19.6740     0.3300 ca         1 U5I      -0.060000
     47 C63         36.4440   -18.3400     0.3720 ca         1 U5I      -0.112300
     48 C64         34.9810   -17.9840     0.5320 c3         1 U5I       0.266100
     49 C7          33.4120   -18.7840     3.8090 ca         1 U5I      -0.195000
     50 C8          32.3900   -18.8980     6.0610 cp         1 U5I       0.039000
     51 C9          31.3620   -18.1150     6.6010 ca         1 U5I      -0.100300
     52 N11         30.5430   -20.0180     7.8090 nb         1 U5I      -0.703000
     53 N35         37.6880   -18.9880    -3.2560 nu         1 U5I      -0.985200
     54 N45         40.9210   -25.6420    -4.1280 nb         1 U5I      -0.697000
     55 O19         37.0470   -15.3820     4.2610 o          1 U5I      -0.726500
     56 O20         36.1480   -15.4280     6.3000 o          1 U5I      -0.726500
     57 O21         36.2590   -13.3810    -0.0550 os         1 U5I      -0.442000
     58 O24         36.2460   -13.1720    -2.9910 os         1 U5I      -0.434000
     59 O34         35.1300   -15.7370    -3.4890 os         1 U5I      -0.331100
     60 O53         36.5570   -21.6390    -8.5500 o          1 U5I      -0.721500
     61 O54         35.7880   -19.6480    -7.9080 o          1 U5I      -0.721500
     62 H1          31.5470   -21.7940     7.5790 h4         1 U5I       0.002100
     63 H2          33.2320   -20.8790     6.0080 ha         1 U5I       0.128000
     64 H3          32.0530   -16.0840     6.6030 hc         1 U5I       0.081200
     65 H4          31.3010   -16.5760     5.1240 hc         1 U5I       0.081200
     66 H5          29.7200   -15.0550     6.2860 ha         1 U5I       0.166000
     67 H6          28.1920   -16.1040     7.8170 ha         1 U5I       0.159000
     68 H7          28.4120   -18.5830     8.0130 hc         1 U5I       0.053700
     69 H8          29.4970   -17.8910     9.1780 hc         1 U5I       0.053700
     70 H9          37.7620   -12.3950    -1.1100 h1         1 U5I       0.023200
     71 H10         36.6220   -11.3540    -0.2570 h1         1 U5I       0.023200
     72 H11         36.0080   -11.1760    -2.5030 h1         1 U5I       0.022700
     73 H12         34.8020   -12.2530    -1.7980 h1         1 U5I       0.022700
     74 H13         35.8400   -13.7180    -4.9010 h1         1 U5I       0.047200
     75 H14         34.7000   -12.5530    -4.2410 h1         1 U5I       0.047200
     76 H15         33.8440   -14.3300    -2.6670 h1         1 U5I       0.035200
     77 H16         33.5920   -14.6700    -4.3860 h1         1 U5I       0.035200
     78 H17         35.4920   -20.1200    -2.7750 ha         1 U5I       0.127000
     79 H18         33.0710   -20.3940    -2.4030 ha         1 U5I       0.107000
     80 H19         31.5800   -18.4160    -2.5260 ha         1 U5I       0.097000
     81 H20         35.9760   -16.8800     2.6640 ha         1 U5I       0.143000
     82 H21         32.4980   -16.2030    -3.0260 ha         1 U5I       0.103000
     83 H22         37.2460   -17.0960    -2.6240 h1         1 U5I       0.066200
     84 H23         37.0380   -17.3450    -4.3300 h1         1 U5I       0.066200
     85 H24         36.4620   -18.9890    -5.6590 ha         1 U5I       0.139000
     86 H25         38.0480   -22.7340    -6.9240 ha         1 U5I       0.131000
     87 H26         39.0700   -21.1980    -3.0550 ha         1 U5I       0.093000
     88 H27         39.8010   -25.7790    -2.4290 h4         1 U5I       0.003100
     89 H28         38.4770   -23.7430    -2.8510 ha         1 U5I       0.127000
     90 H29         40.4130   -22.0760    -6.9710 ha         1 U5I       0.146000
     91 H30         42.1850   -22.9260    -8.4160 ha         1 U5I       0.109000
     92 H31         34.2860   -17.0260     6.5730 ha         1 U5I       0.128000
     93 H32         43.3300   -25.0620    -7.8820 ha         1 U5I       0.097000
     94 H33         42.7110   -26.3160    -5.8440 ha         1 U5I       0.113000
     95 H34         37.8730   -13.0260     1.2130 h1         1 U5I       0.073200
     96 H35         36.5940   -14.0610     1.8360 h1         1 U5I       0.073200
     97 H36         38.5210   -14.8270    -0.4110 h1         1 U5I       0.040200
     98 H37         38.6560   -15.2900     1.2940 h1         1 U5I       0.040200
     99 H38         39.5390   -16.9680    -0.0500 ha         1 U5I       0.111000
    100 H39         40.1630   -19.3320    -0.1170 ha         1 U5I       0.102000
    101 H40         38.4290   -21.0940     0.1270 ha         1 U5I       0.106000
    102 H41         36.0680   -20.4370     0.4420 ha         1 U5I       0.115000
    103 H42         34.8590   -16.9070     0.6680 h1         1 U5I       0.058700
    104 H43         34.4650   -18.2330    -0.3960 h1         1 U5I       0.058700
    105 H44         32.6940   -19.5280     3.4820 ha         1 U5I       0.088000
    106 H45         33.5000   -19.2190     1.3170 hn         1 U5I       0.456000
    107 H46         37.9800   -19.2540    -2.3290 hn         1 U5I       0.478000
    108 C18         36.2330   -15.7930     5.1130 c          1 U5I       0.716600
    109 N1          34.3260   -18.7140     1.5910 nu         1 U5I      -0.970200
    110 O57         37.0160   -16.0770     0.2850 os         1 U5I      -0.332100
@<TRIPOS>BOND
     1     1     7 1   
     2     1    51 ar  
     3     1    52 ar  
     4     2     3 ar  
     5     2    52 ar  
     6     2    62 1   
     7     3    50 ar  
     8     3    63 1   
     9     4     5 1   
    10     4    51 1   
    11     4    64 1   
    12     4    65 1   
    13     5     6 2   
    14     5    66 1   
    15     6     7 1   
    16     6    67 1   
    17     7    68 1   
    18     7    69 1   
    19     8    16 ar  
    20     8    49 ar  
    21     8   109 1   
    22     9    10 1   
    23     9    57 1   
    24     9    70 1   
    25     9    71 1   
    26    10    58 1   
    27    10    72 1   
    28    10    73 1   
    29    11    12 1   
    30    11    58 1   
    31    11    74 1   
    32    11    75 1   
    33    12    59 1   
    34    12    76 1   
    35    12    77 1   
    36    13    14 ar  
    37    13    19 ar  
    38    13    78 1   
    39    14    15 ar  
    40    14    79 1   
    41    15    17 ar  
    42    15    80 1   
    43    16    25 ar  
    44    16    81 1   
    45    17    18 ar  
    46    17    82 1   
    47    18    19 ar  
    48    18    59 1   
    49    19    20 1   
    50    20    53 1   
    51    20    83 1   
    52    20    84 1   
    53    21    22 ar  
    54    21    27 ar  
    55    21    53 1   
    56    22    23 ar  
    57    22    85 1   
    58    23    24 ar  
    59    23    38 1   
    60    24    26 ar  
    61    24    86 1   
    62    25    35 ar  
    63    25   108 1   
    64    26    27 ar  
    65    26    28 1   
    66    27    87 1   
    67    28    29 ar  
    68    28    32 ar  
    69    29    30 ar  
    70    29    33 ar  
    71    30    37 ar  
    72    30    54 ar  
    73    31    32 ar  
    74    31    54 ar  
    75    31    88 1   
    76    32    89 1   
    77    33    34 ar  
    78    33    90 1   
    79    34    36 ar  
    80    34    91 1   
    81    35    43 ar  
    82    35    92 1   
    83    36    37 ar  
    84    36    93 1   
    85    37    94 1   
    86    38    60 1   
    87    38    61 1   
    88    39    40 1   
    89    39    57 1   
    90    39    95 1   
    91    39    96 1   
    92    40    97 1   
    93    40    98 1   
    94    40   110 1   
    95    41    42 ar  
    96    41    47 ar  
    97    41   110 1   
    98    42    44 ar  
    99    42    99 1   
   100    43    49 ar  
   101    43    50 1   
   102    44    45 ar  
   103    44   100 1   
   104    45    46 ar  
   105    45   101 1   
   106    46    47 ar  
   107    46   102 1   
   108    47    48 1   
   109    48   103 1   
   110    48   104 1   
   111    48   109 1   
   112    49   105 1   
   113    50    51 ar  
   114    53   107 1   
   115    55   108 1   
   116    56   108 1   
   117   106   109 1   
@<TRIPOS>SUBSTRUCTURE
     1 U5I         1 TEMP              0 ****  ****    0 ROOT
