@<TRIPOS>MOLECULE
U5L
   61    64     1     0     0
SMALL
No Charge or Current Charge


@<TRIPOS>ATOM
      1 C10         13.5020   -20.9380    -5.6470 c6         1 U5L      -0.021100
      2 C13         19.0930   -17.4550    -8.5720 ca         1 U5L      -0.133000
      3 C15         20.3080   -19.0460    -7.1750 ca         1 U5L      -0.038300
      4 C17         21.6350   -19.7670    -6.9260 c3         1 U5L      -0.038800
      5 C21         20.3190   -18.6370    -3.3280 c3         1 U5L       0.180000
      6 C24         16.6510   -16.9070    -8.0190 cx         1 U5L      -0.059400
      7 C26         15.5260   -17.5160    -8.8240 cx         1 U5L      -0.137900
      8 C28         21.6420   -18.7170    -2.5310 c3         1 U5L      -0.100100
      9 C01         14.5600   -19.8590    -5.3470 ca         1 U5L      -0.159300
     10 C02         15.7240   -19.7280    -6.1540 ca         1 U5L      -0.000300
     11 C03         16.6880   -18.7160    -5.8560 cp         1 U5L      -0.042000
     12 C04         16.4300   -17.8300    -4.7850 ca         1 U5L      -0.079000
     13 C05         15.2900   -17.9670    -3.9860 ca         1 U5L      -0.157000
     14 C06         14.3700   -18.9870    -4.2460 ca         1 U5L       0.123100
     15 C08         12.4710   -20.2850    -3.4470 c6         1 U5L       0.162600
     16 C09         12.1770   -20.6910    -4.8990 c6         1 U5L      -0.111400
     17 C11         17.9410   -18.5300    -6.6680 cp         1 U5L      -0.032000
     18 C12         17.9510   -17.6450    -7.7870 ca         1 U5L      -0.057300
     19 C14         20.2580   -18.1640    -8.2710 ca         1 U5L      -0.127000
     20 C16         19.1600   -19.2230    -6.3420 ca         1 U5L      -0.011300
     21 C18         19.2340   -20.1410    -5.0920 c3         1 U5L       0.054600
     22 C19         19.2830   -21.6670    -5.4890 c          1 U5L       0.727000
     23 C25         16.2690   -16.3210    -9.3620 cx         1 U5L      -0.137900
     24 C27         15.9080   -20.6650    -7.3510 c3         1 U5L      -0.055800
     25 C29         19.1150   -18.7770    -2.3600 c3         1 U5L      -0.100100
     26 C30         20.2860   -17.3180    -4.1400 c3         1 U5L      -0.100100
     27 O07         13.2690   -19.0860    -3.4200 os         1 U5L      -0.364100
     28 O20         20.3670   -19.7830    -4.2200 os         1 U5L      -0.440000
     29 O22         20.0640   -22.4150    -4.9090 o          1 U5L      -0.711000
     30 O23         18.5450   -22.0690    -6.3780 o          1 U5L      -0.711000
     31 H1          13.2860   -20.9930    -6.7220 hc         1 U5L       0.053200
     32 H2          13.9020   -21.9200    -5.3590 hc         1 U5L       0.053200
     33 H3          19.0860   -16.7630    -9.4100 ha         1 U5L       0.090000
     34 H4          22.1590   -19.3510    -6.0580 hc         1 U5L       0.044367
     35 H5          21.4940   -20.8400    -6.7610 hc         1 U5L       0.044367
     36 H6          22.3130   -19.6720    -7.7820 hc         1 U5L       0.044367
     37 H7          16.3690   -16.3010    -7.1610 hc         1 U5L       0.084700
     38 H8          14.5110   -17.3700    -8.4610 hc         1 U5L       0.064200
     39 H9          15.7030   -18.4700    -9.3140 hc         1 U5L       0.064200
     40 H10         21.7160   -17.8920    -1.8130 hc         1 U5L       0.033589
     41 H11         21.7050   -19.6590    -1.9720 hc         1 U5L       0.033589
     42 H12         22.5070   -18.6600    -3.2030 hc         1 U5L       0.033589
     43 H13         17.1260   -17.0240    -4.5720 ha         1 U5L       0.114000
     44 H14         15.1220   -17.2840    -3.1580 ha         1 U5L       0.114000
     45 H15         11.5360   -20.1070    -2.8980 h1         1 U5L       0.047200
     46 H16         13.0210   -21.0900    -2.9390 h1         1 U5L       0.047200
     47 H17         11.6090   -19.8910    -5.3940 hc         1 U5L       0.044700
     48 H18         11.5490   -21.5920    -4.9260 hc         1 U5L       0.044700
     49 H19         21.1380   -18.0150    -8.8940 ha         1 U5L       0.092000
     50 H20         18.3020   -20.0560    -4.5250 h1         1 U5L       0.038700
     51 H21         16.9210   -16.4870   -10.2150 hc         1 U5L       0.064200
     52 H22         15.7520   -15.3640    -9.3660 hc         1 U5L       0.064200
     53 H23         15.8770   -21.7150    -7.0380 hc         1 U5L       0.054367
     54 H24         15.1140   -20.5160    -8.0920 hc         1 U5L       0.054367
     55 H25         16.8570   -20.5120    -7.8750 hc         1 U5L       0.054367
     56 H26         19.1850   -18.0370    -1.5530 hc         1 U5L       0.033589
     57 H27         18.1620   -18.6110    -2.8690 hc         1 U5L       0.033589
     58 H28         19.0950   -19.7740    -1.9040 hc         1 U5L       0.033589
     59 H29         20.4230   -16.4570    -3.4740 hc         1 U5L       0.033589
     60 H30         21.0900   -17.2960    -4.8850 hc         1 U5L       0.033589
     61 H31         19.3350   -17.1780    -4.6550 hc         1 U5L       0.033589
@<TRIPOS>BOND
     1     1     9 1   
     2     1    16 1   
     3     1    31 1   
     4     1    32 1   
     5     2    18 ar  
     6     2    19 ar  
     7     2    33 1   
     8     3     4 1   
     9     3    19 ar  
    10     3    20 ar  
    11     4    34 1   
    12     4    35 1   
    13     4    36 1   
    14     5     8 1   
    15     5    25 1   
    16     5    26 1   
    17     5    28 1   
    18     6     7 1   
    19     6    18 1   
    20     6    23 1   
    21     6    37 1   
    22     7    23 1   
    23     7    38 1   
    24     7    39 1   
    25     8    40 1   
    26     8    41 1   
    27     8    42 1   
    28     9    10 ar  
    29     9    14 ar  
    30    10    11 ar  
    31    10    24 1   
    32    11    12 ar  
    33    11    17 1   
    34    12    13 ar  
    35    12    43 1   
    36    13    14 ar  
    37    13    44 1   
    38    14    27 1   
    39    15    16 1   
    40    15    27 1   
    41    15    45 1   
    42    15    46 1   
    43    16    47 1   
    44    16    48 1   
    45    17    18 ar  
    46    17    20 ar  
    47    19    49 1   
    48    20    21 1   
    49    21    22 1   
    50    21    28 1   
    51    21    50 1   
    52    22    29 1   
    53    22    30 1   
    54    23    51 1   
    55    23    52 1   
    56    24    53 1   
    57    24    54 1   
    58    24    55 1   
    59    25    56 1   
    60    25    57 1   
    61    25    58 1   
    62    26    59 1   
    63    26    60 1   
    64    26    61 1   
@<TRIPOS>SUBSTRUCTURE
     1 U5L         1 TEMP              0 ****  ****    0 ROOT
