@<TRIPOS>MOLECULE
U5L
   61    64     1     0     0
SMALL
abcg2


@<TRIPOS>ATOM
      1 C10         13.5240   -20.9220    -5.5010 c6         1 U5L      -0.021100
      2 C13         18.8690   -17.6930    -8.6990 ca         1 U5L      -0.133000
      3 C15         20.2310   -19.0470    -7.2180 ca         1 U5L      -0.038300
      4 C17         21.5730   -19.6740    -6.9420 c3         1 U5L      -0.038800
      5 C21         20.2950   -18.6530    -3.3350 c3         1 U5L       0.180000
      6 C24         16.4370   -17.2700    -8.2580 cx         1 U5L      -0.059400
      7 C26         15.9420   -17.3230    -9.6890 cx         1 U5L      -0.137900
      8 C28         21.6180   -18.7730    -2.5810 c3         1 U5L      -0.100100
      9 C01         14.5910   -19.8850    -5.2310 ca         1 U5L      -0.159300
     10 C02         15.7270   -19.7870    -6.0560 ca         1 U5L      -0.000300
     11 C03         16.6860   -18.7910    -5.8260 cp         1 U5L      -0.042000
     12 C04         16.4730   -17.8790    -4.7890 ca         1 U5L      -0.079000
     13 C05         15.3720   -17.9750    -3.9580 ca         1 U5L      -0.157000
     14 C06         14.4410   -18.9900    -4.1680 ca         1 U5L       0.123100
     15 C08         12.5830   -20.2200    -3.3130 c6         1 U5L       0.162600
     16 C09         12.2400   -20.6210    -4.7310 c6         1 U5L      -0.111400
     17 C11         17.8870   -18.6260    -6.7080 cp         1 U5L      -0.032000
     18 C12         17.7510   -17.8610    -7.8830 ca         1 U5L      -0.057300
     19 C14         20.0810   -18.2790    -8.3690 ca         1 U5L      -0.127000
     20 C16         19.1220   -19.2140    -6.3710 ca         1 U5L      -0.011300
     21 C18         19.2450   -20.0490    -5.1100 c3         1 U5L       0.054600
     22 C19         19.2960   -21.5950    -5.3860 c          1 U5L       0.727000
     23 C25         16.3330   -16.0090    -9.0840 cx         1 U5L      -0.137900
     24 C27         15.8680   -20.7340    -7.2170 c3         1 U5L      -0.055800
     25 C29         19.1290   -18.8750    -2.3690 c3         1 U5L      -0.100100
     26 C30         20.2050   -17.2800    -4.0050 c3         1 U5L      -0.100100
     27 O07         13.3830   -19.0260    -3.2990 os         1 U5L      -0.364100
     28 O20         20.3760   -19.7060    -4.3180 os         1 U5L      -0.440000
     29 O22         19.7030   -22.3160    -4.4450 o          1 U5L      -0.711000
     30 O23         18.8680   -21.9890    -6.4960 o          1 U5L      -0.711000
     31 H1          13.3150   -20.9650    -6.5720 hc         1 U5L       0.053200
     32 H2          13.8970   -21.9140    -5.2250 hc         1 U5L       0.053200
     33 H3          18.7970   -17.1080    -9.6070 ha         1 U5L       0.090000
     34 H4          22.1090   -19.1420    -6.1550 hc         1 U5L       0.044367
     35 H5          21.4770   -20.7080    -6.6090 hc         1 U5L       0.044367
     36 H6          22.1850   -19.6590    -7.8450 hc         1 U5L       0.044367
     37 H7          15.6670   -17.3860    -7.5110 hc         1 U5L       0.084700
     38 H8          14.8920   -17.5270    -9.8510 hc         1 U5L       0.064200
     39 H9          16.6100   -17.7600   -10.4200 hc         1 U5L       0.064200
     40 H10         21.6950   -17.9970    -1.8170 hc         1 U5L       0.033589
     41 H11         21.6900   -19.7480    -2.0960 hc         1 U5L       0.033589
     42 H12         22.4560   -18.6650    -3.2710 hc         1 U5L       0.033589
     43 H13         17.1860   -17.0820    -4.6290 ha         1 U5L       0.114000
     44 H14         15.2210   -17.2790    -3.1430 ha         1 U5L       0.114000
     45 H15         11.6990   -19.9810    -2.7250 h1         1 U5L       0.047200
     46 H16         13.1380   -21.0200    -2.8090 h1         1 U5L       0.047200
     47 H17         11.6940   -19.8030    -5.2080 hc         1 U5L       0.044700
     48 H18         11.5830   -21.4930    -4.7180 hc         1 U5L       0.044700
     49 H19         20.9320   -18.1470    -9.0280 ha         1 U5L       0.092000
     50 H20         18.3320   -19.9200    -4.5290 h1         1 U5L       0.038700
     51 H21         17.2530   -15.5480    -9.4170 hc         1 U5L       0.064200
     52 H22         15.5480   -15.3100    -8.8240 hc         1 U5L       0.064200
     53 H23         15.6530   -21.7620    -6.9210 hc         1 U5L       0.054367
     54 H24         15.1620   -20.4740    -8.0130 hc         1 U5L       0.054367
     55 H25         16.8750   -20.7070    -7.6200 hc         1 U5L       0.054367
     56 H26         19.1980   -18.1620    -1.5460 hc         1 U5L       0.033589
     57 H27         18.1620   -18.7300    -2.8490 hc         1 U5L       0.033589
     58 H28         19.1690   -19.8850    -1.9570 hc         1 U5L       0.033589
     59 H29         20.2110   -16.4930    -3.2480 hc         1 U5L       0.033589
     60 H30         21.0560   -17.1290    -4.6700 hc         1 U5L       0.033589
     61 H31         19.2940   -17.1820    -4.5900 hc         1 U5L       0.033589
@<TRIPOS>BOND
     1     1     9 1   
     2     1    16 1   
     3     1    31 1   
     4     1    32 1   
     5     2    18 ar  
     6     2    19 ar  
     7     2    33 1   
     8     3     4 1   
     9     3    19 ar  
    10     3    20 ar  
    11     4    34 1   
    12     4    35 1   
    13     4    36 1   
    14     5     8 1   
    15     5    25 1   
    16     5    26 1   
    17     5    28 1   
    18     6     7 1   
    19     6    18 1   
    20     6    23 1   
    21     6    37 1   
    22     7    23 1   
    23     7    38 1   
    24     7    39 1   
    25     8    40 1   
    26     8    41 1   
    27     8    42 1   
    28     9    10 ar  
    29     9    14 ar  
    30    10    11 ar  
    31    10    24 1   
    32    11    12 ar  
    33    11    17 1   
    34    12    13 ar  
    35    12    43 1   
    36    13    14 ar  
    37    13    44 1   
    38    14    27 1   
    39    15    16 1   
    40    15    27 1   
    41    15    45 1   
    42    15    46 1   
    43    16    47 1   
    44    16    48 1   
    45    17    18 ar  
    46    17    20 ar  
    47    19    49 1   
    48    20    21 1   
    49    21    22 1   
    50    21    28 1   
    51    21    50 1   
    52    22    29 1   
    53    22    30 1   
    54    23    51 1   
    55    23    52 1   
    56    24    53 1   
    57    24    54 1   
    58    24    55 1   
    59    25    56 1   
    60    25    57 1   
    61    25    58 1   
    62    26    59 1   
    63    26    60 1   
    64    26    61 1   
@<TRIPOS>SUBSTRUCTURE
     1 U5L         1 TEMP              0 ****  ****    0 ROOT
