@<TRIPOS>MOLECULE
U5N
   13    13     1     0     0
SMALL
abcg2


@<TRIPOS>ATOM
      1 C03        -13.6610   -18.3290   -41.2440 c5         1 U5N       0.177500
      2 C04        -13.4360   -19.3610   -42.3010 c2         1 U5N      -0.201200
      3 C05        -12.8130   -18.4970   -39.9950 c3         1 U5N      -0.092100
      4 C06        -13.0240   -18.7760   -43.4240 ce         1 U5N      -0.291200
      5 C07        -12.9550   -17.3250   -43.1920 c          1 U5N       0.641300
      6 O01        -13.3300   -17.0810   -41.9070 os         1 U5N      -0.433100
      7 O02        -12.6350   -16.4330   -43.9430 o          1 U5N      -0.480000
      8 H1         -14.7210   -18.2740   -40.9770 h1         1 U5N       0.083700
      9 H2         -13.5940   -20.4150   -42.1240 ha         1 U5N       0.211000
     10 H3         -12.9940   -17.6730   -39.3060 hc         1 U5N       0.053367
     11 H4         -13.0800   -19.4310   -39.4990 hc         1 U5N       0.053367
     12 H5         -11.7540   -18.5260   -40.2550 hc         1 U5N       0.053367
     13 H6         -12.7680   -19.2280   -44.3690 ha         1 U5N       0.225000
@<TRIPOS>BOND
     1     1     2 1   
     2     1     3 1   
     3     1     6 1   
     4     1     8 1   
     5     2     4 2   
     6     2     9 1   
     7     3    10 1   
     8     3    11 1   
     9     3    12 1   
    10     4     5 1   
    11     4    13 1   
    12     5     6 1   
    13     5     7 2   
@<TRIPOS>SUBSTRUCTURE
     1 U5N         1 TEMP              0 ****  ****    0 ROOT
