@<TRIPOS>MOLECULE
U5N
   13    13     1     0     0
SMALL
No Charge or Current Charge


@<TRIPOS>ATOM
      1 C03        -13.7080   -18.3180   -41.2450 c5         1 U5N       0.177500
      2 C04        -13.4660   -19.3910   -42.2980 c2         1 U5N      -0.201200
      3 C05        -12.8110   -18.4890   -40.0050 c3         1 U5N      -0.092100
      4 C06        -13.0220   -18.7530   -43.3870 ce         1 U5N      -0.291200
      5 C07        -12.9420   -17.3090   -43.1830 c          1 U5N       0.641300
      6 O01        -13.3690   -17.0620   -41.9070 os         1 U5N      -0.433100
      7 O02        -12.5720   -16.4700   -43.9890 o          1 U5N      -0.480000
      8 H1         -14.7620   -18.2860   -40.9320 h1         1 U5N       0.083700
      9 H2         -13.6200   -20.4670   -42.1870 ha         1 U5N       0.211000
     10 H3         -12.9770   -17.6780   -39.2870 hc         1 U5N       0.053367
     11 H4         -13.0260   -19.4360   -39.4960 hc         1 U5N       0.053367
     12 H5         -11.7500   -18.4880   -40.2800 hc         1 U5N       0.053367
     13 H6         -12.7410   -19.2020   -44.3380 ha         1 U5N       0.225000
@<TRIPOS>BOND
     1     1     2 1   
     2     1     3 1   
     3     1     6 1   
     4     1     8 1   
     5     2     4 2   
     6     2     9 1   
     7     3    10 1   
     8     3    11 1   
     9     3    12 1   
    10     4     5 1   
    11     4    13 1   
    12     5     6 1   
    13     5     7 2   
@<TRIPOS>SUBSTRUCTURE
     1 U5N         1 TEMP              0 ****  ****    0 ROOT
