@<TRIPOS>MOLECULE
U5O
   19    18     1     0     0
SMALL
abcg2


@<TRIPOS>ATOM
      1 C04          6.9650    18.4780    37.5400 c2         1 U5O      -0.341200
      2 C05          6.0490    19.5790    37.1120 c3         1 U5O      -0.020900
      3 O07          9.4890    17.3860    39.5790 os         1 U5O      -0.580400
      4 C01          8.2880    16.9900    38.9860 c3         1 U5O       0.266800
      5 C03          7.3910    18.1800    38.7700 c2         1 U5O      -0.036400
      6 C06          7.0330    18.9420    40.0110 c3         1 U5O      -0.051900
      7 O09          9.4390    15.7330    41.5440 o          1 U5O      -0.925167
      8 O10         10.6510    15.0990    39.3780 o          1 U5O      -0.925167
      9 O11         11.5910    16.9810    40.8650 o          1 U5O      -0.925167
     10 P08         10.3750    16.1790    40.4220 p5         1 U5O       1.269900
     11 H041         7.3170    17.8430    36.7300 ha         1 U5O       0.157000
     12 H053         5.1610    19.1750    36.6200 hc         1 U5O       0.002700
     13 H051         5.7130    20.2080    37.9350 hc         1 U5O       0.002700
     14 H052         6.5370    20.2260    36.3790 hc         1 U5O       0.002700
     15 H011         7.7500    16.2700    39.6230 h1         1 U5O       0.003700
     16 H012         8.4520    16.4870    38.0220 h1         1 U5O       0.003700
     17 H063         6.3130    19.7390    39.8370 hc         1 U5O       0.031700
     18 H061         6.6080    18.2710    40.7630 hc         1 U5O       0.031700
     19 H062         7.9190    19.3900    40.4640 hc         1 U5O       0.031700
@<TRIPOS>BOND
     1     1     2 1   
     2     1     5 2   
     3     1    11 1   
     4     2    12 1   
     5     2    13 1   
     6     2    14 1   
     7     3     4 1   
     8     3    10 1   
     9     4     5 1   
    10     4    15 1   
    11     4    16 1   
    12     5     6 1   
    13     6    17 1   
    14     6    18 1   
    15     6    19 1   
    16     7    10 1   
    17     8    10 1   
    18     9    10 1   
@<TRIPOS>SUBSTRUCTURE
     1 U5O         1 TEMP              0 ****  ****    0 ROOT
