@<TRIPOS>MOLECULE
U5O
   19    18     1     0     0
SMALL
No Charge or Current Charge


@<TRIPOS>ATOM
      1 C04          7.1000    18.4700    37.6140 c2         1 U5O      -0.341200
      2 C05          6.2990    19.6030    36.9980 c3         1 U5O      -0.020900
      3 O07          9.4430    17.3550    39.5320 os         1 U5O      -0.580400
      4 C01          8.0800    16.9520    39.3710 c3         1 U5O       0.266800
      5 C03          7.2630    18.1610    38.9190 c2         1 U5O      -0.036400
      6 C06          6.6780    18.9300    40.0970 c3         1 U5O      -0.051900
      7 O09         10.1290    15.7430    41.3630 o          1 U5O      -0.925167
      8 O10         10.5770    15.1430    39.0400 o          1 U5O      -0.925167
      9 O11         11.8500    16.9090    40.1110 o          1 U5O      -0.925167
     10 P08         10.5140    16.2610    40.0210 p5         1 U5O       1.269900
     11 H041         7.5770    17.8380    36.8640 ha         1 U5O       0.157000
     12 H053         5.6430    19.2200    36.2080 hc         1 U5O       0.002700
     13 H051         5.6610    20.1260    37.7160 hc         1 U5O       0.002700
     14 H052         6.9660    20.3440    36.5410 hc         1 U5O       0.002700
     15 H011         7.6760    16.5600    40.3140 h1         1 U5O       0.003700
     16 H012         7.9980    16.1560    38.6190 h1         1 U5O       0.003700
     17 H063         6.1590    19.8460    39.8030 hc         1 U5O       0.031700
     18 H061         5.9620    18.3110    40.6500 hc         1 U5O       0.031700
     19 H062         7.4680    19.2260    40.7980 hc         1 U5O       0.031700
@<TRIPOS>BOND
     1     1     2 1   
     2     1     5 2   
     3     1    11 1   
     4     2    12 1   
     5     2    13 1   
     6     2    14 1   
     7     3     4 1   
     8     3    10 1   
     9     4     5 1   
    10     4    15 1   
    11     4    16 1   
    12     5     6 1   
    13     6    17 1   
    14     6    18 1   
    15     6    19 1   
    16     7    10 1   
    17     8    10 1   
    18     9    10 1   
@<TRIPOS>SUBSTRUCTURE
     1 U5O         1 TEMP              0 ****  ****    0 ROOT
