@<TRIPOS>MOLECULE
U5P
   32    33     1     0     0
SMALL
bcc


@<TRIPOS>ATOM
      1 N1           2.4390     0.1350     0.4030 n          1 U5P      -0.371000
      2 C2           2.3650    -0.5130    -0.8140 c          1 U5P       0.829500
      3 N3           3.2960    -1.5010    -0.9970 ns         1 U5P      -0.604500
      4 C4           4.2790    -1.9270    -0.1170 c          1 U5P       0.743700
      5 C5           4.2740    -1.2080     1.1330 cc         1 U5P      -0.375200
      6 C6           3.3700    -0.2360     1.3330 cd         1 U5P       0.089600
      7 O2           1.5510    -0.2300    -1.6660 o          1 U5P      -0.601500
      8 O4           5.0400    -2.8240    -0.4260 o          1 U5P      -0.647500
      9 C1           1.4590     1.1610     0.7420 c5         1 U5P       0.305500
     10 C7           1.3430     2.3430    -0.2380 c5         1 U5P       0.068100
     11 O6           1.4430     3.5310     0.5040 oh         1 U5P      -0.617800
     12 C3          -0.0770     2.1870    -0.8150 c5         1 U5P       0.066100
     13 C8          -0.8000     1.3780     0.2580 c5         1 U5P       0.134100
     14 O3          -0.7220     3.4240    -0.9970 oh         1 U5P      -0.586800
     15 O7           0.2010     0.5690     0.8600 os         1 U5P      -0.351600
     16 C9          -1.9070     0.5100    -0.2930 c3         1 U5P       0.228400
     17 O5          -2.6000    -0.1040     0.7470 os         1 U5P      -0.546200
     18 P           -3.8990    -1.1290     0.3120 p5         1 U5P       1.272900
     19 O1P         -4.8240    -0.2490    -0.5220 o          1 U5P      -0.924167
     20 O2P         -3.2530    -2.2690    -0.4660 o          1 U5P      -0.924167
     21 O3P         -4.4290    -1.5070     1.6880 o          1 U5P      -0.924167
     22 HN3          3.2530    -1.9700    -1.8940 hn         1 U5P       0.334500
     23 H5           4.9890    -1.4580     1.9010 ha         1 U5P       0.155000
     24 H6           3.3400     0.3150     2.2620 h4         1 U5P       0.151000
     25 H1           1.7970     1.5570     1.7040 h2         1 U5P       0.056700
     26 H2           2.1140     2.3090    -1.0160 h1         1 U5P       0.045700
     27 HO2          0.7660     4.1290     0.1560 ho         1 U5P       0.425000
     28 H3          -0.0350     1.6230    -1.7490 h1         1 U5P       0.084700
     29 H4          -1.2190     2.0700     1.0040 h1         1 U5P       0.063700
     30 HO3         -0.5720     3.7240    -1.8980 ho         1 U5P       0.393000
     31 H5'1        -2.5610     1.1560    -0.8960 h1         1 U5P       0.014700
     32 H5'2        -1.4600    -0.2190    -0.9850 h1         1 U5P       0.014700
@<TRIPOS>BOND
     1     1     2 1   
     2     1     6 1   
     3     1     9 1   
     4     2     3 1   
     5     2     7 2   
     6     3     4 1   
     7     3    22 1   
     8     4     5 1   
     9     4     8 2   
    10     5     6 2   
    11     5    23 1   
    12     6    24 1   
    13     9    10 1   
    14     9    15 1   
    15     9    25 1   
    16    10    11 1   
    17    10    12 1   
    18    10    26 1   
    19    11    27 1   
    20    12    13 1   
    21    12    14 1   
    22    12    28 1   
    23    13    15 1   
    24    13    16 1   
    25    13    29 1   
    26    14    30 1   
    27    16    17 1   
    28    16    31 1   
    29    16    32 1   
    30    17    18 1   
    31    18    19 1   
    32    18    20 1   
    33    18    21 1   
@<TRIPOS>SUBSTRUCTURE
     1 U5P         1 TEMP              0 ****  ****    0 ROOT
