@<TRIPOS>MOLECULE
U5P
   32    33     1     0     0
SMALL
No Charge or Current Charge


@<TRIPOS>ATOM
      1 N1           2.4460     0.0230     0.4900 n          1 U5P      -0.304000
      2 C2           2.6530    -0.7790    -0.6570 c          1 U5P       0.620000
      3 N3           3.8500    -1.4250    -0.7260 ns         1 U5P      -0.470500
      4 C4           4.8770    -1.3880     0.1560 c          1 U5P       0.601200
      5 C5           4.6230    -0.5330     1.3070 cc         1 U5P      -0.425200
      6 C6           3.4390     0.1490     1.4600 cd         1 U5P       0.039600
      7 O2           1.8520    -0.8970    -1.5700 o          1 U5P      -0.526000
      8 O4           5.9070    -2.0130    -0.0180 o          1 U5P      -0.572000
      9 C1           1.1490     0.7200     0.7130 c5         1 U5P       0.328700
     10 C7           1.1420     2.0390    -0.1550 c5         1 U5P       0.091300
     11 O6           0.8250     3.2180     0.5970 oh         1 U5P      -0.740000
     12 C3          -0.0450     1.7620    -1.1310 c5         1 U5P       0.089300
     13 C8          -0.9560     0.8610    -0.2360 c5         1 U5P       0.157300
     14 O3          -0.6630     3.0010    -1.5450 oh         1 U5P      -0.709000
     15 O7           0.0000    -0.0610     0.3290 os         1 U5P      -0.398000
     16 C9          -2.0720     0.1030    -1.0170 c3         1 U5P       0.251600
     17 O5          -2.8590    -0.7560    -0.1650 os         1 U5P      -0.569400
     18 P           -3.9000    -0.1740     0.9180 p5         1 U5P       1.272900
     19 O1P         -3.1850     0.4930     2.0380 o          1 U5P      -0.924167
     20 O2P         -4.8220     0.7860     0.2530 o          1 U5P      -0.924167
     21 O3P         -4.6930    -1.3100     1.4600 o          1 U5P      -0.924167
     22 HN3          3.9920    -1.9970    -1.5430 hn         1 U5P       0.334500
     23 H5           5.4230    -0.4700     2.0360 ha         1 U5P       0.205000
     24 H6           3.1940     0.7990     2.2980 h4         1 U5P       0.201000
     25 H1           1.0870     0.9640     1.7810 h2         1 U5P       0.056700
     26 H2           2.0820     2.1790    -0.7070 h1         1 U5P       0.045700
     27 HO2          0.1420     3.6460     0.0140 ho         1 U5P       0.524000
     28 H3           0.3100     1.1930    -2.0030 h1         1 U5P       0.084700
     29 H4          -1.4020     1.4590     0.5670 h1         1 U5P       0.063700
     30 HO3         -1.1210     2.8380    -2.4040 ho         1 U5P       0.492000
     31 H5'1        -2.7160     0.8400    -1.5130 h1         1 U5P       0.014700
     32 H5'2        -1.5990    -0.4950    -1.8070 h1         1 U5P       0.014700
@<TRIPOS>BOND
     1     1     2 1   
     2     1     6 1   
     3     1     9 1   
     4     2     3 1   
     5     2     7 2   
     6     3     4 1   
     7     3    22 1   
     8     4     5 1   
     9     4     8 2   
    10     5     6 2   
    11     5    23 1   
    12     6    24 1   
    13     9    10 1   
    14     9    15 1   
    15     9    25 1   
    16    10    11 1   
    17    10    12 1   
    18    10    26 1   
    19    11    27 1   
    20    12    13 1   
    21    12    14 1   
    22    12    28 1   
    23    13    15 1   
    24    13    16 1   
    25    13    29 1   
    26    14    30 1   
    27    16    17 1   
    28    16    31 1   
    29    16    32 1   
    30    17    18 1   
    31    18    19 1   
    32    18    20 1   
    33    18    21 1   
@<TRIPOS>SUBSTRUCTURE
     1 U5P         1 TEMP              0 ****  ****    0 ROOT
