@<TRIPOS>MOLECULE
U5Q
   33    35     1     0     0
SMALL
No Charge or Current Charge


@<TRIPOS>ATOM
      1 C1         -52.1710    20.4090    10.0130 ca         1 U5Q      -0.226000
      2 C11        -51.9520    22.8950     7.1240 cp         1 U5Q       0.027000
      3 C12        -53.0110    23.7580     6.7200 ca         1 U5Q      -0.070000
      4 C13        -52.7450    24.9340     5.9670 ca         1 U5Q       0.260000
      5 C14        -50.6170    23.2290     6.7660 ca         1 U5Q      -0.081300
      6 C16        -50.3620    24.3960     6.0250 ca         1 U5Q      -0.099000
      7 C17        -51.4150    25.2330     5.6310 ca         1 U5Q      -0.105000
      8 C18        -54.3530    23.4770     7.0630 ca         1 U5Q      -0.034000
      9 C19        -55.0050    25.4910     5.8960 ca         1 U5Q       0.342900
     10 C2         -51.9190    21.5810     9.2830 ca         1 U5Q      -0.091000
     11 C20        -49.4410    22.3390     7.1600 c3         1 U5Q      -0.042800
     12 C21        -55.3590    24.3590     6.6410 ca         1 U5Q      -0.186000
     13 C3         -52.2250    21.6520     7.9050 cp         1 U5Q      -0.119000
     14 C4         -52.7930    20.5170     7.2810 ca         1 U5Q      -0.062000
     15 C5         -53.0590    19.3390     8.0100 ca         1 U5Q      -0.124600
     16 C6         -52.7380    19.2900     9.3820 ca         1 U5Q       0.145100
     17 C8         -53.6680    18.1580     7.3070 c          1 U5Q       0.721600
     18 N15        -53.7270    25.7770     5.5650 nb         1 U5Q      -0.681000
     19 O10        -53.0490    17.6720     6.3690 o          1 U5Q      -0.711000
     20 O7         -52.9470    18.1600    10.1160 oh         1 U5Q      -0.508100
     21 O9         -54.7950    17.8050     7.6260 o          1 U5Q      -0.711000
     22 H1         -51.9200    20.3760    11.0710 ha         1 U5Q       0.090000
     23 H2         -49.3430    24.6570     5.7480 ha         1 U5Q       0.103000
     24 H3         -51.1970    26.1300     5.0570 ha         1 U5Q       0.118000
     25 H4         -54.6200    22.6010     7.6480 ha         1 U5Q       0.147000
     26 H5         -55.7660    26.1920     5.5550 h4         1 U5Q       0.005100
     27 H6         -51.4800    22.4430     9.7820 ha         1 U5Q       0.091000
     28 H7         -49.2530    22.3930     8.2380 hc         1 U5Q       0.043033
     29 H8         -49.6340    21.2910     6.9030 hc         1 U5Q       0.043033
     30 H9         -48.5170    22.6330     6.6490 hc         1 U5Q       0.043033
     31 H10        -56.4000    24.1720     6.8870 ha         1 U5Q       0.119000
     32 H11        -53.0330    20.5560     6.2210 ha         1 U5Q       0.121000
     33 H12        -52.6600    18.3370    11.0360 ho         1 U5Q       0.430000
@<TRIPOS>BOND
     1     1    10 ar  
     2     1    16 ar  
     3     1    22 1   
     4     2     3 ar  
     5     2     5 ar  
     6     2    13 1   
     7     3     4 ar  
     8     3     8 ar  
     9     4     7 ar  
    10     4    18 ar  
    11     5     6 ar  
    12     5    11 1   
    13     6     7 ar  
    14     6    23 1   
    15     7    24 1   
    16     8    12 ar  
    17     8    25 1   
    18     9    12 ar  
    19     9    18 ar  
    20     9    26 1   
    21    10    13 ar  
    22    10    27 1   
    23    11    28 1   
    24    11    29 1   
    25    11    30 1   
    26    12    31 1   
    27    13    14 ar  
    28    14    15 ar  
    29    14    32 1   
    30    15    16 ar  
    31    15    17 1   
    32    16    20 1   
    33    17    19 1   
    34    17    21 1   
    35    20    33 1   
@<TRIPOS>SUBSTRUCTURE
     1 U5Q         1 TEMP              0 ****  ****    0 ROOT
