@<TRIPOS>MOLECULE
U5Q
   33    35     1     0     0
SMALL
abcg2


@<TRIPOS>ATOM
      1 C1         -52.1100    20.3960     9.9760 ca         1 U5Q      -0.226000
      2 C11        -51.9160    22.8900     7.1350 cp         1 U5Q       0.027000
      3 C12        -53.0020    23.7240     6.7280 ca         1 U5Q      -0.070000
      4 C13        -52.7490    24.9040     5.9670 ca         1 U5Q       0.260000
      5 C14        -50.6190    23.2400     6.8000 ca         1 U5Q      -0.081300
      6 C16        -50.3910    24.4210     6.0500 ca         1 U5Q      -0.099000
      7 C17        -51.4150    25.2310     5.6410 ca         1 U5Q      -0.105000
      8 C18        -54.3520    23.4530     7.0590 ca         1 U5Q      -0.034000
      9 C19        -54.9850    25.4330     5.8700 ca         1 U5Q       0.342900
     10 C2         -51.8470    21.5560     9.2590 ca         1 U5Q      -0.091000
     11 C20        -49.4340    22.3990     7.1970 c3         1 U5Q      -0.042800
     12 C21        -55.3390    24.3010     6.6330 ca         1 U5Q      -0.186000
     13 C3         -52.1960    21.6530     7.9130 cp         1 U5Q      -0.119000
     14 C4         -52.8080    20.5540     7.3070 ca         1 U5Q      -0.062000
     15 C5         -53.0850    19.3830     8.0050 ca         1 U5Q      -0.124600
     16 C6         -52.7290    19.3140     9.3550 ca         1 U5Q       0.145100
     17 C8         -53.7610    18.2110     7.3040 c          1 U5Q       0.721600
     18 N15        -53.7460    25.7350     5.5480 nb         1 U5Q      -0.681000
     19 O10        -53.0310    17.5060     6.5660 o          1 U5Q      -0.711000
     20 O7         -52.9980    18.1530    10.0300 oh         1 U5Q      -0.508100
     21 O9         -54.9890    18.0680     7.5120 o          1 U5Q      -0.711000
     22 H1         -51.8360    20.3260    11.0230 ha         1 U5Q       0.090000
     23 H2         -49.3700    24.6750     5.7890 ha         1 U5Q       0.103000
     24 H3         -51.2290    26.1260     5.0610 ha         1 U5Q       0.118000
     25 H4         -54.5930    22.5800     7.6490 ha         1 U5Q       0.147000
     26 H5         -55.7590    26.1100     5.5230 h4         1 U5Q       0.005100
     27 H6         -51.3680    22.3920     9.7520 ha         1 U5Q       0.091000
     28 H7         -49.1050    22.6360     8.2130 hc         1 U5Q       0.043033
     29 H8         -49.6730    21.3360     7.1770 hc         1 U5Q       0.043033
     30 H9         -48.5940    22.5830     6.5280 hc         1 U5Q       0.043033
     31 H10        -56.3780    24.1190     6.8730 ha         1 U5Q       0.119000
     32 H11        -53.0740    20.6110     6.2580 ha         1 U5Q       0.121000
     33 H12        -52.6940    18.2320    10.9440 ho         1 U5Q       0.430000
@<TRIPOS>BOND
     1     1    10 ar  
     2     1    16 ar  
     3     1    22 1   
     4     2     3 ar  
     5     2     5 ar  
     6     2    13 1   
     7     3     4 ar  
     8     3     8 ar  
     9     4     7 ar  
    10     4    18 ar  
    11     5     6 ar  
    12     5    11 1   
    13     6     7 ar  
    14     6    23 1   
    15     7    24 1   
    16     8    12 ar  
    17     8    25 1   
    18     9    12 ar  
    19     9    18 ar  
    20     9    26 1   
    21    10    13 ar  
    22    10    27 1   
    23    11    28 1   
    24    11    29 1   
    25    11    30 1   
    26    12    31 1   
    27    13    14 ar  
    28    14    15 ar  
    29    14    32 1   
    30    15    16 ar  
    31    15    17 1   
    32    16    20 1   
    33    17    19 1   
    34    17    21 1   
    35    20    33 1   
@<TRIPOS>SUBSTRUCTURE
     1 U5Q         1 TEMP              0 ****  ****    0 ROOT
