@<TRIPOS>MOLECULE
U5R
   34    35     1     0     0
SMALL
No Charge or Current Charge


@<TRIPOS>ATOM
      1 O2          -1.3930     1.7690     0.1630 o          1 U5R      -0.478000
      2 C2          -2.4160     1.1080     0.1340 c          1 U5R       0.603000
      3 N3          -3.5970     1.7070    -0.1920 ns         1 U5R      -0.477500
      4 C4          -4.8200     1.1390    -0.3190 c          1 U5R       0.599200
      5 O4          -5.8090     1.7840    -0.6180 o          1 U5R      -0.579000
      6 C5          -4.8240    -0.2960    -0.0690 cc         1 U5R      -0.435200
      7 C6          -3.6790    -0.9760     0.2720 cd         1 U5R       0.037600
      8 N1          -2.4760    -0.2830     0.3860 n          1 U5R      -0.302000
      9 C1          -1.2700    -1.0350     0.8310 c5         1 U5R       0.315700
     10 O1          -0.4220    -0.3140     1.7490 os         1 U5R      -0.470000
     11 C7          -0.3940    -1.3610    -0.4070 c5         1 U5R       0.107300
     12 F2          -0.9110    -2.4290    -1.1570 f          1 U5R      -0.283000
     13 C3           0.9180    -1.7510     0.3350 c5         1 U5R       0.114300
     14 O3           0.8410    -3.0700     0.9300 oh         1 U5R      -0.739000
     15 C8           0.9700    -0.6040     1.4130 c5         1 U5R       0.149300
     16 C9           1.6730     0.7050     0.9310 c3         1 U5R       0.243300
     17 C5M          1.7550     1.8270     1.9920 c3         1 U5R      -0.094100
     18 O5           3.0150     0.3820     0.5320 os         1 U5R      -0.580400
     19 P            3.5410     0.8200    -0.9240 p5         1 U5R       1.264900
     20 OP1          3.5020     2.3010    -1.0560 o          1 U5R      -0.920833
     21 OP2          4.9420     0.3470    -1.0850 o          1 U5R      -0.920833
     22 OP3          2.6840     0.1860    -1.9600 o          1 U5R      -0.920833
     23 H1          -3.5520     2.6970    -0.3690 hn         1 U5R       0.333500
     24 H2          -5.7830    -0.7910    -0.1660 ha         1 U5R       0.202000
     25 H3          -3.6220    -2.0450     0.4720 h4         1 U5R       0.197000
     26 H4          -1.6140    -1.9600     1.3110 h2         1 U5R       0.044700
     27 H5          -0.2600    -0.4910    -1.0630 h1         1 U5R       0.125700
     28 H6           1.7790    -1.6820    -0.3490 h1         1 U5R       0.178700
     29 H7           0.5310    -3.6850     0.2230 ho         1 U5R       0.495000
     30 H8           1.4880    -0.9480     2.3190 h1         1 U5R       0.081700
     31 H9           1.1040     1.0980     0.0780 h1         1 U5R       0.049700
     32 H10          0.7500     2.1300     2.3080 hc         1 U5R       0.019033
     33 H11          2.3030     1.4860     2.8780 hc         1 U5R       0.019033
     34 H12          2.2600     2.7110     1.5880 hc         1 U5R       0.019033
@<TRIPOS>BOND
     1     1     2 2   
     2     2     3 1   
     3     2     8 1   
     4     3     4 1   
     5     3    23 1   
     6     4     5 2   
     7     4     6 1   
     8     6     7 2   
     9     6    24 1   
    10     7     8 1   
    11     7    25 1   
    12     8     9 1   
    13     9    10 1   
    14     9    11 1   
    15     9    26 1   
    16    10    15 1   
    17    11    12 1   
    18    11    13 1   
    19    11    27 1   
    20    13    14 1   
    21    13    15 1   
    22    13    28 1   
    23    14    29 1   
    24    15    16 1   
    25    15    30 1   
    26    16    17 1   
    27    16    18 1   
    28    16    31 1   
    29    17    32 1   
    30    17    33 1   
    31    17    34 1   
    32    18    19 1   
    33    19    20 1   
    34    19    21 1   
    35    19    22 1   
@<TRIPOS>SUBSTRUCTURE
     1 U5R         1 TEMP              0 ****  ****    0 ROOT
