@<TRIPOS>MOLECULE
U5R
   34    35     1     0     0
SMALL
bcc


@<TRIPOS>ATOM
      1 O2          -1.3480     1.5130    -0.5490 o          1 U5R      -0.553500
      2 C2          -2.3920     1.0010    -0.2130 c          1 U5R       0.812500
      3 N3          -3.5940     1.6460    -0.3570 ns         1 U5R      -0.611500
      4 C4          -4.8610     1.1890    -0.0280 c          1 U5R       0.741700
      5 O4          -5.8400     1.8840    -0.2230 o          1 U5R      -0.654500
      6 C5          -4.8580    -0.1350     0.5420 cc         1 U5R      -0.385200
      7 C6          -3.6940    -0.7830     0.6990 cd         1 U5R       0.087600
      8 N1          -2.4810    -0.2680     0.3320 n          1 U5R      -0.369000
      9 C1          -1.2810    -1.0510     0.5910 c5         1 U5R       0.292500
     10 O1          -0.4680    -0.4100     1.5210 os         1 U5R      -0.423600
     11 C7          -0.3820    -1.3560    -0.6020 c5         1 U5R       0.088600
     12 F2          -0.8800    -2.4290    -1.3200 f          1 U5R      -0.264300
     13 C3           0.9400    -1.6630     0.0910 c5         1 U5R       0.091100
     14 O3           0.9210    -2.9490     0.6700 oh         1 U5R      -0.616800
     15 C8           0.9190    -0.6270     1.2130 c5         1 U5R       0.126100
     16 C9           1.6330     0.6740     0.8470 c3         1 U5R       0.220100
     17 C5M          1.3990     1.7710     1.8730 c3         1 U5R      -0.094100
     18 O5           2.9970     0.3520     0.7780 os         1 U5R      -0.557200
     19 P            3.8490     0.7830    -0.6350 p5         1 U5R       1.264900
     20 OP1          3.6360     2.2860    -0.7860 o          1 U5R      -0.920833
     21 OP2          5.2600     0.3610    -0.2470 o          1 U5R      -0.920833
     22 OP3          3.2120    -0.0440    -1.7520 o          1 U5R      -0.920833
     23 H1          -3.5340     2.5710    -0.7650 hn         1 U5R       0.333500
     24 H2          -5.7870    -0.5930     0.8440 ha         1 U5R       0.152000
     25 H3          -3.6620    -1.7730     1.1330 h4         1 U5R       0.147000
     26 H4          -1.6510    -2.0060     0.9840 h2         1 U5R       0.044700
     27 H5          -0.2730    -0.5150    -1.2840 h1         1 U5R       0.125700
     28 H6           1.7930    -1.5170    -0.5790 h1         1 U5R       0.178700
     29 H7           0.9430    -3.6020    -0.0360 ho         1 U5R       0.396000
     30 H8           1.4010    -1.0370     2.1080 h1         1 U5R       0.081700
     31 H9           1.2540     1.0300    -0.1190 h1         1 U5R       0.049700
     32 H10          0.3490     2.0570     1.9270 hc         1 U5R       0.019033
     33 H11          1.7230     1.4610     2.8690 hc         1 U5R       0.019033
     34 H12          1.9730     2.6520     1.5850 hc         1 U5R       0.019033
@<TRIPOS>BOND
     1     1     2 2   
     2     2     3 1   
     3     2     8 1   
     4     3     4 1   
     5     3    23 1   
     6     4     5 2   
     7     4     6 1   
     8     6     7 2   
     9     6    24 1   
    10     7     8 1   
    11     7    25 1   
    12     8     9 1   
    13     9    10 1   
    14     9    11 1   
    15     9    26 1   
    16    10    15 1   
    17    11    12 1   
    18    11    13 1   
    19    11    27 1   
    20    13    14 1   
    21    13    15 1   
    22    13    28 1   
    23    14    29 1   
    24    15    16 1   
    25    15    30 1   
    26    16    17 1   
    27    16    18 1   
    28    16    31 1   
    29    17    32 1   
    30    17    33 1   
    31    17    34 1   
    32    18    19 1   
    33    19    20 1   
    34    19    21 1   
    35    19    22 1   
@<TRIPOS>SUBSTRUCTURE
     1 U5R         1 TEMP              0 ****  ****    0 ROOT
