@<TRIPOS>MOLECULE
U5S
   56    60     1     0     0
SMALL
abcg2


@<TRIPOS>ATOM
      1 C10         15.6900   -18.1350    -3.6420 ca         1 U5S       0.120000
      2 C13         19.1300   -17.3410    -8.3630 ca         1 U5S      -0.128000
      3 C15         20.4820   -18.7950    -6.9710 ca         1 U5S      -0.035300
      4 C17         16.6850   -16.9740    -7.9270 cx         1 U5S      -0.062400
      5 C20         19.4700   -20.0020    -4.9900 c3         1 U5S       0.053600
      6 C21         19.7640   -21.4780    -5.3990 c          1 U5S       0.727000
      7 C26         20.0500   -18.4470    -3.2910 cx         1 U5S       0.112300
      8 C28         20.6520   -18.3320    -1.9320 cx         1 U5S      -0.157900
      9 C01         12.4280   -20.5020    -4.6880 c6         1 U5S      -0.111400
     10 C02         13.6820   -20.7240    -5.5300 c6         1 U5S      -0.024100
     11 C03         14.7920   -19.7730    -5.1480 ca         1 U5S      -0.139300
     12 C04         14.6900   -19.0530    -3.9540 ca         1 U5S       0.090100
     13 C06         12.8160   -20.3250    -3.2360 c6         1 U5S       0.160600
     14 C07         15.9130   -19.5960    -5.9810 ca         1 U5S      -0.016300
     15 C08         16.9180   -18.6890    -5.6240 cp         1 U5S      -0.015000
     16 C09         16.7810   -17.9430    -4.4510 ca         1 U5S      -0.109000
     17 C11         18.1220   -18.4460    -6.4780 cp         1 U5S      -0.034000
     18 C12         18.0000   -17.5830    -7.5860 ca         1 U5S      -0.058300
     19 C14         20.3440   -17.9360    -8.0560 ca         1 U5S      -0.126000
     20 C16         19.3530   -19.0550    -6.1710 ca         1 U5S      -0.020300
     21 C18         16.5610   -15.7390    -8.7860 cx         1 U5S      -0.136400
     22 C19         16.1400   -17.0670    -9.3380 cx         1 U5S      -0.136400
     23 C27         19.1810   -18.6630    -2.0890 cx         1 U5S      -0.157900
     24 C29         15.9890   -20.3720    -7.2680 c3         1 U5S      -0.048800
     25 F30         15.5770   -17.4170    -2.4910 f          1 U5S      -0.188000
     26 O05         13.6580   -19.1680    -3.0700 os         1 U5S      -0.343100
     27 O24         19.1480   -21.8800    -6.4160 o          1 U5S      -0.709000
     28 O25         20.4460   -19.5570    -4.0410 os         1 U5S      -0.398000
     29 H1          19.0700   -16.6830    -9.2200 ha         1 U5S       0.092000
     30 H2          15.9390   -17.0610    -7.1510 hc         1 U5S       0.083700
     31 H3          18.5020   -20.0480    -4.4830 h1         1 U5S       0.037700
     32 H4          19.9050   -17.5370    -3.8670 h1         1 U5S       0.053700
     33 H5          21.3090   -19.1350    -1.6230 hc         1 U5S       0.070450
     34 H6          20.9270   -17.3490    -1.5740 hc         1 U5S       0.070450
     35 H7          11.8970   -19.6080    -5.0240 hc         1 U5S       0.047200
     36 H8          11.7450   -21.3480    -4.7830 hc         1 U5S       0.047200
     37 H9          13.4460   -20.6050    -6.5890 hc         1 U5S       0.055200
     38 H10         14.0310   -21.7560    -5.4110 hc         1 U5S       0.055200
     39 H11         11.9560   -20.1430    -2.5940 h1         1 U5S       0.051200
     40 H12         13.3570   -21.2030    -2.8680 h1         1 U5S       0.051200
     41 H13         17.5320   -17.2230    -4.1630 ha         1 U5S       0.133000
     42 H14         21.2080   -17.7330    -8.6800 ha         1 U5S       0.095000
     43 H15         17.4670   -15.2900    -9.1710 hc         1 U5S       0.065200
     44 H16         15.7900   -15.0300    -8.5150 hc         1 U5S       0.065200
     45 H17         15.0840   -17.2700    -9.4610 hc         1 U5S       0.065200
     46 H18         16.7830   -17.5320   -10.0750 hc         1 U5S       0.065200
     47 H19         22.2420   -19.0910    -5.7560 hc         1 U5S       0.050367
     48 H20         21.7600   -20.5110    -6.6570 hc         1 U5S       0.050367
     49 H21         22.5240   -19.1630    -7.5020 hc         1 U5S       0.050367
     50 H22         18.4470   -17.9100    -1.8370 hc         1 U5S       0.070450
     51 H23         18.8820   -19.6840    -1.8870 hc         1 U5S       0.070450
     52 H24         15.8570   -21.4420    -7.0940 hc         1 U5S       0.052033
     53 H25         15.2020   -20.0590    -7.9600 hc         1 U5S       0.052033
     54 H26         16.9480   -20.2260    -7.7580 hc         1 U5S       0.052033
     55 C23         21.8260   -19.4230    -6.7070 c3         1 U5S      -0.047800
     56 O22         20.5240   -22.1510    -4.6690 o          1 U5S      -0.709000
@<TRIPOS>BOND
     1     1    12 ar  
     2     1    16 ar  
     3     1    25 1   
     4     2    18 ar  
     5     2    19 ar  
     6     2    29 1   
     7     3    19 ar  
     8     3    20 ar  
     9     3    55 1   
    10     4    18 1   
    11     4    21 1   
    12     4    22 1   
    13     4    30 1   
    14     5     6 1   
    15     5    20 1   
    16     5    28 1   
    17     5    31 1   
    18     6    27 1   
    19     6    56 1   
    20     7     8 1   
    21     7    23 1   
    22     7    28 1   
    23     7    32 1   
    24     8    23 1   
    25     8    33 1   
    26     8    34 1   
    27     9    10 1   
    28     9    13 1   
    29     9    35 1   
    30     9    36 1   
    31    10    11 1   
    32    10    37 1   
    33    10    38 1   
    34    11    12 ar  
    35    11    14 ar  
    36    12    26 1   
    37    13    26 1   
    38    13    39 1   
    39    13    40 1   
    40    14    15 ar  
    41    14    24 1   
    42    15    16 ar  
    43    15    17 1   
    44    16    41 1   
    45    17    18 ar  
    46    17    20 ar  
    47    19    42 1   
    48    21    22 1   
    49    21    43 1   
    50    21    44 1   
    51    22    45 1   
    52    22    46 1   
    53    23    50 1   
    54    23    51 1   
    55    24    52 1   
    56    24    53 1   
    57    24    54 1   
    58    47    55 1   
    59    48    55 1   
    60    49    55 1   
@<TRIPOS>SUBSTRUCTURE
     1 U5S         1 TEMP              0 ****  ****    0 ROOT
