@<TRIPOS>MOLECULE
U5S
   56    60     1     0     0
SMALL
No Charge or Current Charge


@<TRIPOS>ATOM
      1 C10         15.5920   -17.8150    -3.7970 ca         1 U5S       0.120000
      2 C13         19.3860   -17.0340    -8.2840 ca         1 U5S      -0.128000
      3 C15         20.5730   -18.7650    -7.0370 ca         1 U5S      -0.035300
      4 C17         16.9430   -16.5320    -7.7100 cx         1 U5S      -0.062400
      5 C20         19.4260   -20.1220    -5.1550 c3         1 U5S       0.053600
      6 C21         19.8090   -21.5470    -5.6990 c          1 U5S       0.727000
      7 C26         19.8200   -18.5840    -3.3090 cx         1 U5S       0.112300
      8 C28         20.2390   -18.5310    -1.8620 cx         1 U5S      -0.157900
      9 C01         12.5350   -20.6300    -4.6970 c6         1 U5S      -0.111400
     10 C02         13.8600   -20.8310    -5.4560 c6         1 U5S      -0.024100
     11 C03         14.8860   -19.7190    -5.1620 ca         1 U5S      -0.139300
     12 C04         14.6820   -18.8560    -4.0530 ca         1 U5S       0.090100
     13 C06         12.8300   -20.2250    -3.2450 c6         1 U5S       0.160600
     14 C07         16.0360   -19.5520    -5.9810 ca         1 U5S      -0.016300
     15 C08         16.9690   -18.5100    -5.6950 cp         1 U5S      -0.015000
     16 C09         16.7170   -17.6460    -4.6070 ca         1 U5S      -0.109000
     17 C11         18.2070   -18.2850    -6.5110 cp         1 U5S      -0.034000
     18 C12         18.2360   -17.2920    -7.5320 ca         1 U5S      -0.058300
     19 C14         20.5460   -17.7720    -8.0360 ca         1 U5S      -0.126000
     20 C16         19.4030   -19.0400    -6.2660 ca         1 U5S      -0.020300
     21 C18         16.5120   -15.9760    -9.0500 cx         1 U5S      -0.136400
     22 C19         15.7610   -17.1320    -8.4400 cx         1 U5S      -0.136400
     23 C27         18.8100   -18.8640    -2.2230 cx         1 U5S      -0.157900
     24 C29         16.2540   -20.4940    -7.1690 c3         1 U5S      -0.048800
     25 F30         15.3960   -16.9730    -2.7550 f          1 U5S      -0.188000
     26 O05         13.5870   -19.0000    -3.2180 os         1 U5S      -0.343100
     27 O24         19.1910   -21.9860    -6.6610 o          1 U5S      -0.709000
     28 O25         20.2820   -19.6830    -4.0610 os         1 U5S      -0.398000
     29 H1          19.3870   -16.2630    -9.0500 ha         1 U5S       0.092000
     30 H2          16.7210   -15.9010    -6.8530 hc         1 U5S       0.083700
     31 H3          18.4150   -20.2640    -4.7600 h1         1 U5S       0.037700
     32 H4          19.7480   -17.6450    -3.8600 h1         1 U5S       0.053700
     33 H5          20.8690   -19.3340    -1.4870 hc         1 U5S       0.070450
     34 H6          20.4410   -17.5530    -1.4330 hc         1 U5S       0.070450
     35 H7          11.9390   -19.8440    -5.1810 hc         1 U5S       0.047200
     36 H8          11.9350   -21.5500    -4.7240 hc         1 U5S       0.047200
     37 H9          13.6370   -20.8880    -6.5300 hc         1 U5S       0.055200
     38 H10         14.2950   -21.8000    -5.1760 hc         1 U5S       0.055200
     39 H11         11.8950   -20.0810    -2.6860 h1         1 U5S       0.051200
     40 H12         13.4110   -21.0140    -2.7470 h1         1 U5S       0.051200
     41 H13         17.4130   -16.8400    -4.3900 ha         1 U5S       0.133000
     42 H14         21.4360   -17.5640    -8.6250 ha         1 U5S       0.095000
     43 H15         17.1250   -16.1860    -9.9220 hc         1 U5S       0.065200
     44 H16         16.0250   -15.0040    -9.0600 hc         1 U5S       0.065200
     45 H17         14.7710   -16.9430    -8.0330 hc         1 U5S       0.065200
     46 H18         15.8880   -18.1080    -8.9010 hc         1 U5S       0.065200
     47 H19         22.1700   -19.5820    -5.7760 hc         1 U5S       0.050367
     48 H20         21.8480   -20.5200    -7.2500 hc         1 U5S       0.050367
     49 H21         22.7270   -18.9960    -7.3330 hc         1 U5S       0.050367
     50 H22         18.0540   -18.1090    -2.0260 hc         1 U5S       0.070450
     51 H23         18.4770   -19.8900    -2.0930 hc         1 U5S       0.070450
     52 H24         16.2820   -21.5400    -6.8420 hc         1 U5S       0.052033
     53 H25         15.4480   -20.3930    -7.9050 hc         1 U5S       0.052033
     54 H26         17.1890   -20.3010    -7.7050 hc         1 U5S       0.052033
     55 C23         21.8950   -19.5080    -6.8330 c3         1 U5S      -0.047800
     56 O22         20.6960   -22.1870    -5.1440 o          1 U5S      -0.709000
@<TRIPOS>BOND
     1     1    12 ar  
     2     1    16 ar  
     3     1    25 1   
     4     2    18 ar  
     5     2    19 ar  
     6     2    29 1   
     7     3    19 ar  
     8     3    20 ar  
     9     3    55 1   
    10     4    18 1   
    11     4    21 1   
    12     4    22 1   
    13     4    30 1   
    14     5     6 1   
    15     5    20 1   
    16     5    28 1   
    17     5    31 1   
    18     6    27 1   
    19     6    56 1   
    20     7     8 1   
    21     7    23 1   
    22     7    28 1   
    23     7    32 1   
    24     8    23 1   
    25     8    33 1   
    26     8    34 1   
    27     9    10 1   
    28     9    13 1   
    29     9    35 1   
    30     9    36 1   
    31    10    11 1   
    32    10    37 1   
    33    10    38 1   
    34    11    12 ar  
    35    11    14 ar  
    36    12    26 1   
    37    13    26 1   
    38    13    39 1   
    39    13    40 1   
    40    14    15 ar  
    41    14    24 1   
    42    15    16 ar  
    43    15    17 1   
    44    16    41 1   
    45    17    18 ar  
    46    17    20 ar  
    47    19    42 1   
    48    21    22 1   
    49    21    43 1   
    50    21    44 1   
    51    22    45 1   
    52    22    46 1   
    53    23    50 1   
    54    23    51 1   
    55    24    52 1   
    56    24    53 1   
    57    24    54 1   
    58    47    55 1   
    59    48    55 1   
    60    49    55 1   
@<TRIPOS>SUBSTRUCTURE
     1 U5S         1 TEMP              0 ****  ****    0 ROOT
