@<TRIPOS>MOLECULE
U5T
   36    38     1     0     0
SMALL
bcc


@<TRIPOS>ATOM
      1 C13         -8.7950     2.6910     5.1890 cc         1 U5T      -0.290100
      2 C17         -9.5650     1.6600     4.6550 cd         1 U5T      -0.095300
      3 C02         -0.3830     5.4860     5.4840 ca         1 U5T      -0.049300
      4 C03         -0.8930     4.3640     4.8340 ca         1 U5T      -0.141000
      5 C04         -2.2420     4.0650     4.8590 ca         1 U5T      -0.079000
      6 C05         -3.1200     4.8990     5.5500 ca         1 U5T      -0.133900
      7 C06         -2.6180     6.0280     6.1980 ca         1 U5T      -0.080000
      8 C07         -1.2640     6.3330     6.1730 ca         1 U5T      -0.088300
      9 C08         -0.7530     7.5530     6.8790 c3         1 U5T      -0.046800
     10 C09         -4.5330     4.5720     5.5890 cc         1 U5T       0.637200
     11 C11         -6.4660     3.6880     5.3760 cd         1 U5T      -0.078600
     12 C12         -7.3890     2.7900     4.9620 ce         1 U5T       0.094800
     13 C14         -9.7430     3.4610     5.9130 cc         1 U5T       0.367200
     14 C18        -11.9780     1.0520     4.7500 c3         1 U5T       0.040600
     15 C19         -6.6180     4.8860     6.2050 c          1 U5T       0.719800
     16 N10         -5.1200     3.5800     5.0390 nd         1 U5T      -0.597300
     17 N15        -10.9450     2.9460     5.8180 nd         1 U5T      -0.528800
     18 N16        -10.8180     1.8560     5.0520 na         1 U5T       0.121400
     19 O20         -7.5470     5.4190     6.7420 o          1 U5T      -0.547500
     20 O21         -5.3520     5.3980     6.3000 os         1 U5T      -0.438700
     21 H1          -9.2820     0.8280     4.0300 h4         1 U5T       0.175000
     22 H2           1.2860     6.7510     4.9870 hc         1 U5T       0.045033
     23 H3           1.5050     5.8230     6.4570 hc         1 U5T       0.045033
     24 H4           1.6310     5.0240     4.8900 hc         1 U5T       0.045033
     25 H5          -0.2170     3.7100     4.2980 ha         1 U5T       0.134000
     26 H6          -2.6130     3.1860     4.3490 ha         1 U5T       0.153000
     27 H7          -3.2860     6.6880     6.7370 ha         1 U5T       0.149000
     28 H8          -0.2430     8.2290     6.1900 hc         1 U5T       0.043700
     29 H9          -1.5640     8.1070     7.3500 hc         1 U5T       0.043700
     30 H10         -0.0320     7.2930     7.6560 hc         1 U5T       0.043700
     31 H12         -6.9820     1.9950     4.3450 ha         1 U5T       0.138000
     32 H14         -9.5820     4.3580     6.4860 h4         1 U5T       0.070100
     33 H15        -12.7230     1.6520     4.2330 h1         1 U5T       0.061033
     34 H16        -11.6800     0.2260     4.1120 h1         1 U5T       0.061033
     35 H17        -12.4090     0.6560     5.6680 h1         1 U5T       0.061033
     36 C01          1.0850     5.7820     5.4500 c3         1 U5T      -0.051800
@<TRIPOS>BOND
     1     1     2 2   
     2     1    12 1   
     3     1    13 1   
     4     2    18 1   
     5     2    21 1   
     6     3     4 ar  
     7     3     8 ar  
     8     3    36 1   
     9     4     5 ar  
    10     4    25 1   
    11     5     6 ar  
    12     5    26 1   
    13     6     7 ar  
    14     6    10 1   
    15     7     8 ar  
    16     7    27 1   
    17     8     9 1   
    18     9    28 1   
    19     9    29 1   
    20     9    30 1   
    21    10    16 2   
    22    10    20 1   
    23    11    12 2   
    24    11    15 1   
    25    11    16 1   
    26    12    31 1   
    27    13    17 2   
    28    13    32 1   
    29    14    18 1   
    30    14    33 1   
    31    14    34 1   
    32    14    35 1   
    33    15    19 2   
    34    15    20 1   
    35    17    18 1   
    36    22    36 1   
    37    23    36 1   
    38    24    36 1   
@<TRIPOS>SUBSTRUCTURE
     1 U5T         1 TEMP              0 ****  ****    0 ROOT
