@<TRIPOS>MOLECULE
U5T
   36    38     1     0     0
SMALL
No Charge or Current Charge


@<TRIPOS>ATOM
      1 C13         -8.7450     2.3590     5.3430 cc         1 U5T      -0.224800
      2 C17         -9.6300     1.8110     4.4590 cd         1 U5T      -0.128000
      3 C02         -0.3390     5.5470     5.5120 ca         1 U5T      -0.049300
      4 C03         -0.7580     4.2940     5.0260 ca         1 U5T      -0.123000
      5 C04         -2.1100     3.9210     5.0780 ca         1 U5T      -0.061000
      6 C05         -3.0750     4.7960     5.6190 ca         1 U5T      -0.133900
      7 C06         -2.6520     6.0520     6.1070 ca         1 U5T      -0.062000
      8 C07         -1.2960     6.4340     6.0580 ca         1 U5T      -0.088300
      9 C08         -0.8850     7.8020     6.5960 c3         1 U5T      -0.046800
     10 C09         -4.4890     4.4020     5.6720 cc         1 U5T       0.637200
     11 C11         -6.3670     3.4140     5.5360 cd         1 U5T      -0.078600
     12 C12         -7.2900     2.4350     5.2330 ce         1 U5T       0.044800
     13 C14         -9.5350     2.8170     6.4150 cc         1 U5T       0.301900
     14 C18        -12.1780     1.5610     4.4720 c3         1 U5T       0.069900
     15 C19         -6.6210     4.7180     6.1490 c          1 U5T       0.644300
     16 N10         -5.0230     3.2460     5.2440 nd         1 U5T      -0.597300
     17 N15        -10.8290     2.6110     6.2720 nd         1 U5T      -0.528800
     18 N16        -10.8900     1.9820     5.0400 na         1 U5T       0.142800
     19 O20         -7.6660     5.2370     6.5110 o          1 U5T      -0.472000
     20 O21         -5.4040     5.2710     6.1990 os         1 U5T      -0.438700
     21 H1          -9.4800     1.3320     3.4990 h4         1 U5T       0.157000
     22 H2           1.2890     6.8220     4.8340 hc         1 U5T       0.045033
     23 H3           1.5470     6.1130     6.4400 hc         1 U5T       0.045033
     24 H4           1.7400     5.1210     4.9910 hc         1 U5T       0.045033
     25 H5          -0.0330     3.6020     4.6040 ha         1 U5T       0.116000
     26 H6          -2.4050     2.9460     4.6940 ha         1 U5T       0.135000
     27 H7          -3.3810     6.7420     6.5280 ha         1 U5T       0.131000
     28 H8          -0.4220     8.4130     5.8120 hc         1 U5T       0.043700
     29 H9          -1.7440     8.3650     6.9820 hc         1 U5T       0.043700
     30 H10         -0.1650     7.7040     7.4180 hc         1 U5T       0.043700
     31 H12         -6.8570     1.5860     4.7020 ha         1 U5T       0.188000
     32 H14         -9.1900     3.2930     7.3240 h4         1 U5T       0.070100
     33 H15        -12.8420     2.4290     4.3850 h1         1 U5T       0.061033
     34 H16        -12.0200     1.1250     3.4780 h1         1 U5T       0.061033
     35 H17        -12.6390     0.8120     5.1270 h1         1 U5T       0.061033
     36 C01          1.1390     5.9210     5.4410 c3         1 U5T      -0.051800
@<TRIPOS>BOND
     1     1     2 2   
     2     1    12 1   
     3     1    13 1   
     4     2    18 1   
     5     2    21 1   
     6     3     4 ar  
     7     3     8 ar  
     8     3    36 1   
     9     4     5 ar  
    10     4    25 1   
    11     5     6 ar  
    12     5    26 1   
    13     6     7 ar  
    14     6    10 1   
    15     7     8 ar  
    16     7    27 1   
    17     8     9 1   
    18     9    28 1   
    19     9    29 1   
    20     9    30 1   
    21    10    16 2   
    22    10    20 1   
    23    11    12 2   
    24    11    15 1   
    25    11    16 1   
    26    12    31 1   
    27    13    17 2   
    28    13    32 1   
    29    14    18 1   
    30    14    33 1   
    31    14    34 1   
    32    14    35 1   
    33    15    19 2   
    34    15    20 1   
    35    17    18 1   
    36    22    36 1   
    37    23    36 1   
    38    24    36 1   
@<TRIPOS>SUBSTRUCTURE
     1 U5T         1 TEMP              0 ****  ****    0 ROOT
