@<TRIPOS>MOLECULE
U5V
   17    17     1     0     0
SMALL
No Charge or Current Charge


@<TRIPOS>ATOM
      1 C24        143.9240   -92.8850    27.8620 c3         1 U5V       0.203100
      2 C26       -141.4700   -92.1740    27.7510 ca         1 U5V       0.198000
      3 C28        140.1730   -92.3060    27.2270 ca         1 U5V      -0.158000
      4 C25       -142.5100   -93.0210    27.3120 ca         1 U5V      -0.125300
      5 C29        139.9010   -93.2860    26.2580 ca         1 U5V      -0.081000
      6 C30       -140.9310   -94.1320    25.8130 ca         1 U5V      -0.131000
      7 C31        142.2300   -94.0000    26.3360 ca         1 U5V      -0.085000
      8 N23       -144.1770   -93.8640    28.9350 n8         1 U5V      -0.988200
      9 H8         144.0890   -91.8720    28.2560 h1         1 U5V       0.037700
     10 H9        -144.6490   -93.0530    27.0530 h1         1 U5V       0.037700
     11 H10        139.3810   -91.6470    27.5740 ha         1 U5V       0.131000
     12 H20       -138.8960   -93.3890    25.8510 ha         1 U5V       0.116000
     13 H21        140.7230   -94.8910    25.0620 ha         1 U5V       0.117000
     14 H22       -143.0190   -94.6600    25.9820 ha         1 U5V       0.110000
     15 H39        145.1640   -93.8040    29.2130 hn         1 U5V       0.394500
     16 H2        -144.0890   -94.8080    28.5440 hn         1 U5V       0.394500
     17 F27        141.7050   -91.2190    28.6800 f          1 U5V      -0.172000
@<TRIPOS>BOND
     1     1     4 1   
     2     1     8 1   
     3     1     9 1   
     4     1    10 1   
     5     2     3 ar  
     6     2     4 ar  
     7     2    17 1   
     8     3     5 ar  
     9     3    11 1   
    10     4     7 ar  
    11     5     6 ar  
    12     5    12 1   
    13     6     7 ar  
    14     6    13 1   
    15     7    14 1   
    16     8    15 1   
    17     8    16 1   
@<TRIPOS>SUBSTRUCTURE
     1 U5V         1 TEMP              0 ****  ****    0 ROOT
