@<TRIPOS>MOLECULE
U5V
   17    17     1     0     0
SMALL
abcg2


@<TRIPOS>ATOM
      1 C24       -143.9600   -92.9810    27.7590 c3         1 U5V       0.203100
      2 C26       -141.5180   -92.3210    27.7710 ca         1 U5V       0.198000
      3 C28       -140.2140   -92.4070    27.3270 ca         1 U5V      -0.158000
      4 C25       -142.5570   -93.0640    27.2250 ca         1 U5V      -0.125300
      5 C29       -139.9180   -93.2810    26.2890 ca         1 U5V      -0.081000
      6 C30       -140.9250   -94.0430    25.7150 ca         1 U5V      -0.131000
      7 C31       -142.2270   -93.9300    26.1870 ca         1 U5V      -0.085000
      8 N23       -144.0510   -93.6380    29.0570 n8         1 U5V      -0.988200
      9 H8        -144.2500   -91.9360    27.8860 h1         1 U5V       0.037700
     10 H9        -144.6380   -93.3970    27.0040 h1         1 U5V       0.037700
     11 H10       -139.4440   -91.7990    27.7840 ha         1 U5V       0.131000
     12 H20       -138.9000   -93.3590    25.9310 ha         1 U5V       0.116000
     13 H21       -140.7000   -94.7230    24.9050 ha         1 U5V       0.117000
     14 H22       -143.0130   -94.5270    25.7390 ha         1 U5V       0.110000
     15 H39       -144.9830   -93.5080    29.4300 hn         1 U5V       0.394500
     16 H2        -143.9380   -94.6360    28.9340 hn         1 U5V       0.394500
     17 F27       -141.7940   -91.4610    28.7670 f          1 U5V      -0.172000
@<TRIPOS>BOND
     1     1     4 1   
     2     1     8 1   
     3     1     9 1   
     4     1    10 1   
     5     2     3 ar  
     6     2     4 ar  
     7     2    17 1   
     8     3     5 ar  
     9     3    11 1   
    10     4     7 ar  
    11     5     6 ar  
    12     5    12 1   
    13     6     7 ar  
    14     6    13 1   
    15     7    14 1   
    16     8    15 1   
    17     8    16 1   
@<TRIPOS>SUBSTRUCTURE
     1 U5V         1 TEMP              0 ****  ****    0 ROOT
