@<TRIPOS>MOLECULE
U5W
   73    76     1     0     0
SMALL
No Charge or Current Charge


@<TRIPOS>ATOM
      1 C17          1.6500    39.4910    37.6650 ce         1 U5W      -0.116200
      2 O           -0.1740    41.8210    39.7900 oh         1 U5W      -0.657000
      3 C1           2.3090    40.6690    38.4150 c6         1 U5W       0.213500
      4 O2           4.8600    29.9600    34.4270 oh         1 U5W      -0.662000
      5 C2           1.5730    41.9880    38.0800 c6         1 U5W      -0.108400
      6 C3           0.0540    41.8910    38.3770 c6         1 U5W       0.175300
      7 C4          -0.5740    40.6620    37.6640 c6         1 U5W      -0.031200
      8 C5           0.2070    39.3670    37.9380 ce         1 U5W      -0.069200
      9 C7          -0.4300    38.2240    38.3280 cf         1 U5W      -0.157000
     10 C8           0.2190    36.9450    38.6200 cf         1 U5W      -0.186000
     11 C9          -0.3870    35.7430    38.8200 c2         1 U5W      -0.079400
     12 C10         -1.9080    35.5030    38.7670 c6         1 U5W      -0.041200
     13 C11         -2.3140    34.2560    37.9170 c6         1 U5W      -0.072400
     14 C12         -1.4120    33.0070    38.1650 c6         1 U5W      -0.058400
     15 C13          0.0950    33.3870    38.0650 c5         1 U5W      -0.006800
     16 C21          0.4240    33.8610    36.6060 c3         1 U5W      -0.078100
     17 C14          0.3830    34.4640    39.1610 c5         1 U5W      -0.039500
     18 C15          1.9480    34.4770    39.2020 c5         1 U5W      -0.037200
     19 C16          2.2070    32.9810    39.0950 c2         1 U5W      -0.227200
     20 C28          1.1430    32.3680    38.5250 c2         1 U5W      -0.084400
     21 C27          0.9090    30.9060    38.2610 cx         1 U5W      -0.059800
     22 C6           1.0820    30.4830    36.7740 c3         1 U5W      -0.037400
     23 C19          2.2960    38.6680    36.8030 c2         1 U5W      -0.303000
     24 O1           3.6970    40.7970    38.0900 oh         1 U5W      -0.658000
     25 C26          2.4520    30.8120    36.0780 c3         1 U5W      -0.077400
     26 C18          2.4780    30.4110    34.5800 c3         1 U5W      -0.104400
     27 C20          3.8030    30.6960    33.8110 c3         1 U5W       0.186000
     28 C22          3.6860    30.1990    32.3510 c3         1 U5W      -0.101600
     29 C23          4.1860    32.1960    33.8300 c3         1 U5W      -0.101600
     30 C24         -0.0730    30.1540    39.1380 cx         1 U5W      -0.123400
     31 C25          1.4060    29.9390    39.3170 cx         1 U5W      -0.123400
     32 HO           0.0960    42.6880    40.1630 ho         1 U5W       0.440000
     33 H11          2.2060    40.4800    39.4950 h1         1 U5W       0.046700
     34 H4           4.8880    30.2420    35.3650 ho         1 U5W       0.440000
     35 H21          1.7150    42.2220    37.0170 hc         1 U5W       0.057200
     36 H22          2.0150    42.8210    38.6420 hc         1 U5W       0.057200
     37 H3          -0.4310    42.7960    37.9810 h1         1 U5W       0.033700
     38 H41         -0.5860    40.8440    36.5810 hc         1 U5W       0.056700
     39 H42         -1.6260    40.5600    37.9640 hc         1 U5W       0.056700
     40 H7          -1.5100    38.2820    38.4570 ha         1 U5W       0.171000
     41 H8           1.3040    36.9930    38.6930 ha         1 U5W       0.175000
     42 H101        -2.4510    36.3720    38.3790 hc         1 U5W       0.046200
     43 H102        -2.2690    35.3610    39.7950 hc         1 U5W       0.046200
     44 H111        -2.2880    34.5230    36.8520 hc         1 U5W       0.039200
     45 H112        -3.3610    33.9980    38.1250 hc         1 U5W       0.039200
     46 H121        -1.6320    32.6100    39.1650 hc         1 U5W       0.043200
     47 H122        -1.6610    32.2120    37.4490 hc         1 U5W       0.043200
     48 H181         1.5000    34.0000    36.4530 hc         1 U5W       0.035367
     49 H182         0.0870    33.1340    35.8600 hc         1 U5W       0.035367
     50 H183        -0.0520    34.8140    36.3530 hc         1 U5W       0.035367
     51 H14          0.0260    34.1060    40.1360 hc         1 U5W       0.056700
     52 H151         2.3270    34.8980    40.1400 hc         1 U5W       0.052200
     53 H152         2.4130    35.0190    38.3710 hc         1 U5W       0.052200
     54 H161         3.1190    32.4940    39.4920 ha         1 U5W       0.186000
     55 H221         0.2720    30.9250    36.1850 hc         1 U5W       0.042700
     56 H222         0.9240    29.4000    36.6930 hc         1 U5W       0.042700
     57 H191         3.3550    38.7650    36.5690 ha         1 U5W       0.168500
     58 H192         1.7660    37.8680    36.2850 ha         1 U5W       0.168500
     59 H32          4.1080    39.9390    38.3280 ho         1 U5W       0.446000
     60 H231         3.2510    30.2940    36.6220 hc         1 U5W       0.042200
     61 H232         2.6420    31.8850    36.1770 hc         1 U5W       0.042200
     62 H241         1.6600    30.9340    34.0690 hc         1 U5W       0.046200
     63 H242         2.2490    29.3410    34.5040 hc         1 U5W       0.046200
     64 H261         3.4490    29.1280    32.3190 hc         1 U5W       0.041200
     65 H262         2.8920    30.7380    31.8200 hc         1 U5W       0.041200
     66 H263         4.6250    30.3550    31.8060 hc         1 U5W       0.041200
     67 H273         4.4050    32.5450    34.8460 hc         1 U5W       0.041200
     68 H271         5.0790    32.3770    33.2200 hc         1 U5W       0.041200
     69 H272         3.3710    32.8090    33.4270 hc         1 U5W       0.041200
     70 H211        -0.5880    30.6930    39.9280 hc         1 U5W       0.072450
     71 H212        -0.6520    29.3530    38.6850 hc         1 U5W       0.072450
     72 H45          1.8220    28.9890    38.9900 hc         1 U5W       0.072450
     73 H46          1.8670    30.3500    40.2110 hc         1 U5W       0.072450
@<TRIPOS>BOND
     1     1     3 1   
     2     1     8 1   
     3     1    23 2   
     4     2     6 1   
     5     2    32 1   
     6     3     5 1   
     7     3    24 1   
     8     3    33 1   
     9     4    27 1   
    10     4    34 1   
    11     5     6 1   
    12     5    35 1   
    13     5    36 1   
    14     6     7 1   
    15     6    37 1   
    16     7     8 1   
    17     7    38 1   
    18     7    39 1   
    19     8     9 2   
    20     9    10 1   
    21     9    40 1   
    22    10    11 2   
    23    10    41 1   
    24    11    12 1   
    25    11    17 1   
    26    12    13 1   
    27    12    42 1   
    28    12    43 1   
    29    13    14 1   
    30    13    44 1   
    31    13    45 1   
    32    14    15 1   
    33    14    46 1   
    34    14    47 1   
    35    15    16 1   
    36    15    17 1   
    37    15    20 1   
    38    16    48 1   
    39    16    49 1   
    40    16    50 1   
    41    17    18 1   
    42    17    51 1   
    43    18    19 1   
    44    18    52 1   
    45    18    53 1   
    46    19    20 2   
    47    19    54 1   
    48    20    21 1   
    49    21    22 1   
    50    21    30 1   
    51    21    31 1   
    52    22    25 1   
    53    22    55 1   
    54    22    56 1   
    55    23    57 1   
    56    23    58 1   
    57    24    59 1   
    58    25    26 1   
    59    25    60 1   
    60    25    61 1   
    61    26    27 1   
    62    26    62 1   
    63    26    63 1   
    64    27    28 1   
    65    27    29 1   
    66    28    64 1   
    67    28    65 1   
    68    28    66 1   
    69    29    67 1   
    70    29    68 1   
    71    29    69 1   
    72    30    31 1   
    73    30    70 1   
    74    30    71 1   
    75    31    72 1   
    76    31    73 1   
@<TRIPOS>SUBSTRUCTURE
     1 U5W         1 TEMP              0 ****  ****    0 ROOT
