@<TRIPOS>MOLECULE
U5W
   73    76     1     0     0
SMALL
bcc


@<TRIPOS>ATOM
      1 C17          1.7110    39.4840    37.6090 ce         1 U5W      -0.116200
      2 O           -0.3200    41.4740    39.6620 oh         1 U5W      -0.594800
      3 C1           2.2750    40.6330    38.4180 c6         1 U5W       0.190300
      4 O2           4.6700    29.9380    34.3740 oh         1 U5W      -0.599800
      5 C2           1.5020    41.9110    38.1040 c6         1 U5W      -0.108400
      6 C3          -0.0010    41.7420    38.3110 c6         1 U5W       0.152100
      7 C4          -0.5240    40.5770    37.4800 c6         1 U5W      -0.031200
      8 C5           0.2500    39.3170    37.7540 ce         1 U5W      -0.069200
      9 C7          -0.3610    38.1760    38.1140 cf         1 U5W      -0.107000
     10 C8           0.2860    36.9290    38.4760 cf         1 U5W      -0.136000
     11 C9          -0.3280    35.7640    38.7340 c2         1 U5W      -0.079400
     12 C10         -1.8130    35.5050    38.6720 c6         1 U5W      -0.041200
     13 C11         -2.1750    34.3000    37.7860 c6         1 U5W      -0.072400
     14 C12         -1.3270    33.0530    38.0610 c6         1 U5W      -0.058400
     15 C13          0.1590    33.4020    38.0530 c5         1 U5W      -0.006800
     16 C21          0.5970    33.8630    36.6530 c3         1 U5W      -0.078100
     17 C14          0.3940    34.5140    39.1060 c5         1 U5W      -0.039500
     18 C15          1.8920    34.4400    39.3870 c5         1 U5W      -0.037200
     19 C16          2.1150    32.9550    39.2510 c2         1 U5W      -0.177200
     20 C28          1.1400    32.3530    38.5650 c2         1 U5W      -0.084400
     21 C27          1.0060    30.9000    38.2840 cx         1 U5W      -0.059800
     22 C6           1.0270    30.4930    36.8240 c3         1 U5W      -0.037400
     23 C19          2.4470    38.7350    36.7900 c2         1 U5W      -0.203000
     24 O1           3.6380    40.8790    38.1850 oh         1 U5W      -0.595800
     25 C26          2.3530    30.8050    36.1400 c3         1 U5W      -0.077400
     26 C18          2.3160    30.5030    34.6470 c3         1 U5W      -0.104400
     27 C20          3.6220    30.7650    33.8810 c3         1 U5W       0.162800
     28 C22          3.4310    30.3690    32.4220 c3         1 U5W      -0.101600
     29 C23          4.0250    32.2380    33.9630 c3         1 U5W      -0.101600
     30 C24          0.1050    30.1160    39.2000 cx         1 U5W      -0.123400
     31 C25          1.5920    29.9260    39.2620 cx         1 U5W      -0.123400
     32 HO           0.0150    42.1990    40.2000 ho         1 U5W       0.401000
     33 H11          2.1070    40.3900    39.4770 h1         1 U5W       0.046700
     34 H4           4.8890    30.2230    35.2680 ho         1 U5W       0.401000
     35 H21          1.6840    42.1990    37.0630 hc         1 U5W       0.057200
     36 H22          1.8750    42.7300    38.7280 hc         1 U5W       0.057200
     37 H3          -0.4990    42.6610    37.9740 h1         1 U5W       0.033700
     38 H41         -0.4200    40.8510    36.4240 hc         1 U5W       0.056700
     39 H42         -1.5900    40.4290    37.6670 hc         1 U5W       0.056700
     40 H7          -1.4450    38.2050    38.1670 ha         1 U5W       0.121000
     41 H8           1.3680    36.9570    38.5540 ha         1 U5W       0.125000
     42 H101        -2.3730    36.3760    38.3310 hc         1 U5W       0.046200
     43 H102        -2.1580    35.2990    39.6920 hc         1 U5W       0.046200
     44 H111        -2.0780    34.5870    36.7370 hc         1 U5W       0.039200
     45 H112        -3.2310    34.0620    37.9340 hc         1 U5W       0.039200
     46 H121        -1.5940    32.6340    39.0370 hc         1 U5W       0.043200
     47 H122        -1.5560    32.2840    37.3180 hc         1 U5W       0.043200
     48 H181         1.6570    34.1190    36.6270 hc         1 U5W       0.035367
     49 H182         0.4320    33.0790    35.9130 hc         1 U5W       0.035367
     50 H183         0.0450    34.7420    36.3180 hc         1 U5W       0.035367
     51 H14         -0.0910    34.1410    40.0210 hc         1 U5W       0.056700
     52 H151         2.1530    34.8280    40.3740 hc         1 U5W       0.052200
     53 H152         2.4940    35.0000    38.6610 hc         1 U5W       0.052200
     54 H161         2.9810    32.4500    39.6620 ha         1 U5W       0.136000
     55 H221         0.2070    30.9820    36.2890 hc         1 U5W       0.042700
     56 H222         0.8270    29.4190    36.7540 hc         1 U5W       0.042700
     57 H191         3.5080    38.8960    36.6560 ha         1 U5W       0.118500
     58 H192         2.0010    37.9380    36.2080 ha         1 U5W       0.118500
     59 H32          4.1480    40.1570    38.5660 ho         1 U5W       0.407000
     60 H231         3.1410    30.2270    36.6340 hc         1 U5W       0.042200
     61 H232         2.5980    31.8580    36.3010 hc         1 U5W       0.042200
     62 H241         1.5230    31.1030    34.1880 hc         1 U5W       0.046200
     63 H242         2.0280    29.4560    34.4980 hc         1 U5W       0.046200
     64 H261         3.1540    29.3170    32.3310 hc         1 U5W       0.041200
     65 H262         2.6390    30.9630    31.9670 hc         1 U5W       0.041200
     66 H263         4.3450    30.5310    31.8460 hc         1 U5W       0.041200
     67 H273         4.2640    32.5380    34.9850 hc         1 U5W       0.041200
     68 H271         4.9040    32.4320    33.3460 hc         1 U5W       0.041200
     69 H272         3.2190    32.8840    33.6130 hc         1 U5W       0.041200
     70 H211        -0.3700    30.6420    40.0180 hc         1 U5W       0.072450
     71 H212        -0.5010    29.3290    38.7640 hc         1 U5W       0.072450
     72 H45          2.0040    29.0060    38.8630 hc         1 U5W       0.072450
     73 H46          2.1170    30.3000    40.1320 hc         1 U5W       0.072450
@<TRIPOS>BOND
     1     1     3 1   
     2     1     8 1   
     3     1    23 2   
     4     2     6 1   
     5     2    32 1   
     6     3     5 1   
     7     3    24 1   
     8     3    33 1   
     9     4    27 1   
    10     4    34 1   
    11     5     6 1   
    12     5    35 1   
    13     5    36 1   
    14     6     7 1   
    15     6    37 1   
    16     7     8 1   
    17     7    38 1   
    18     7    39 1   
    19     8     9 2   
    20     9    10 1   
    21     9    40 1   
    22    10    11 2   
    23    10    41 1   
    24    11    12 1   
    25    11    17 1   
    26    12    13 1   
    27    12    42 1   
    28    12    43 1   
    29    13    14 1   
    30    13    44 1   
    31    13    45 1   
    32    14    15 1   
    33    14    46 1   
    34    14    47 1   
    35    15    16 1   
    36    15    17 1   
    37    15    20 1   
    38    16    48 1   
    39    16    49 1   
    40    16    50 1   
    41    17    18 1   
    42    17    51 1   
    43    18    19 1   
    44    18    52 1   
    45    18    53 1   
    46    19    20 2   
    47    19    54 1   
    48    20    21 1   
    49    21    22 1   
    50    21    30 1   
    51    21    31 1   
    52    22    25 1   
    53    22    55 1   
    54    22    56 1   
    55    23    57 1   
    56    23    58 1   
    57    24    59 1   
    58    25    26 1   
    59    25    60 1   
    60    25    61 1   
    61    26    27 1   
    62    26    62 1   
    63    26    63 1   
    64    27    28 1   
    65    27    29 1   
    66    28    64 1   
    67    28    65 1   
    68    28    66 1   
    69    29    67 1   
    70    29    68 1   
    71    29    69 1   
    72    30    31 1   
    73    30    70 1   
    74    30    71 1   
    75    31    72 1   
    76    31    73 1   
@<TRIPOS>SUBSTRUCTURE
     1 U5W         1 TEMP              0 ****  ****    0 ROOT
