@<TRIPOS>MOLECULE
U5X
   41    44     1     0     0
SMALL
abcg2


@<TRIPOS>ATOM
      1 C1         -51.6230    -2.5760    13.0170 ca         1 U5X      -0.104000
      2 C10        -52.0060     3.1240    10.0330 ca         1 U5X      -0.145000
      3 C11        -52.2490     3.0920     8.6690 cp         1 U5X      -0.032000
      4 C12        -53.0440     2.0370     8.2040 ca         1 U5X       0.405000
      5 C14        -53.3210     1.1460    10.2880 ca         1 U5X       0.287900
      6 C15        -51.6600     4.1250     7.7800 cp         1 U5X      -0.020000
      7 C16        -50.3090     4.1140     7.5240 ca         1 U5X      -0.089000
      8 C17        -49.7190     5.0810     6.6830 ca         1 U5X      -0.106000
      9 C18        -50.4830     6.0590     6.1030 ca         1 U5X      -0.074000
     10 C19        -51.8750     6.1150     6.3510 ca         1 U5X       0.264000
     11 C2         -50.3550    -2.5240    12.4460 ca         1 U5X      -0.103000
     12 C20        -52.4750     5.1410     7.2030 ca         1 U5X      -0.061000
     13 C22        -53.8890     7.1700     6.0070 ca         1 U5X       0.350900
     14 C23        -54.5710     6.2630     6.8460 ca         1 U5X      -0.165000
     15 C24        -53.8640     5.2540     7.4420 ca         1 U5X      -0.053000
     16 C3         -49.8180    -1.2940    12.0780 ca         1 U5X      -0.104000
     17 C4         -50.5420    -0.1240    12.2840 ca         1 U5X      -0.102000
     18 C5         -51.8110    -0.1680    12.8580 ca         1 U5X      -0.126300
     19 C6         -52.3450    -1.4040    13.2170 ca         1 U5X      -0.102000
     20 C7         -52.6040     1.0990    13.1280 c3         1 U5X       0.262100
     21 C9         -52.5420     2.1480    10.8880 ca         1 U5X       0.271000
     22 N13        -53.5550     1.1070     8.9750 nb         1 U5X      -0.627000
     23 N21        -52.5980     7.1120     5.7650 nb         1 U5X      -0.662000
     24 N8         -52.3270     2.2120    12.2400 nu         1 U5X      -0.953200
     25 H26        -52.0530    -3.5290    13.2990 ha         1 U5X       0.115500
     26 H34        -51.3970     3.9190    10.4440 ha         1 U5X       0.124000
     27 H35        -53.7610     0.3520    10.8760 h4         1 U5X       0.032100
     28 H36        -49.6910     3.3440     7.9670 ha         1 U5X       0.118000
     29 H37        -48.6540     5.0400     6.4970 ha         1 U5X       0.119000
     30 H38        -50.0480     6.8060     5.4520 ha         1 U5X       0.133000
     31 H27        -49.7930    -3.4350    12.2820 ha         1 U5X       0.116000
     32 H39        -54.4400     7.9720     5.5260 h4         1 U5X       0.019100
     33 H40        -55.6340     6.3770     7.0070 ha         1 U5X       0.125000
     34 H41        -54.3580     4.5460     8.0940 ha         1 U5X       0.127000
     35 H28        -48.8340    -1.2440    11.6290 ha         1 U5X       0.115500
     36 H29        -50.1180     0.8280    11.9890 ha         1 U5X       0.110000
     37 H30        -53.3380    -1.4500    13.6500 ha         1 U5X       0.110000
     38 H31        -52.3940     1.4490    14.1400 h1         1 U5X       0.061700
     39 H32        -53.6710     0.8640    13.1010 h1         1 U5X       0.061700
     40 H33        -51.5990     2.8420    12.5360 hn         1 U5X       0.477000
     41 CL25       -53.3740     1.8850     6.4780 cl         1 U5X      -0.177000
@<TRIPOS>BOND
     1     1    11 ar  
     2     1    19 ar  
     3     1    25 1   
     4     2     3 ar  
     5     2    21 ar  
     6     2    26 1   
     7     3     4 ar  
     8     3     6 1   
     9     4    22 ar  
    10     4    41 1   
    11     5    21 ar  
    12     5    22 ar  
    13     5    27 1   
    14     6     7 ar  
    15     6    12 ar  
    16     7     8 ar  
    17     7    28 1   
    18     8     9 ar  
    19     8    29 1   
    20     9    10 ar  
    21     9    30 1   
    22    10    12 ar  
    23    10    23 ar  
    24    11    16 ar  
    25    11    31 1   
    26    12    15 ar  
    27    13    14 ar  
    28    13    23 ar  
    29    13    32 1   
    30    14    15 ar  
    31    14    33 1   
    32    15    34 1   
    33    16    17 ar  
    34    16    35 1   
    35    17    18 ar  
    36    17    36 1   
    37    18    19 ar  
    38    18    20 1   
    39    19    37 1   
    40    20    24 1   
    41    20    38 1   
    42    20    39 1   
    43    21    24 1   
    44    24    40 1   
@<TRIPOS>SUBSTRUCTURE
     1 U5X         1 TEMP              0 ****  ****    0 ROOT
