@<TRIPOS>MOLECULE
U5X
   41    44     1     0     0
SMALL
No Charge or Current Charge


@<TRIPOS>ATOM
      1 C1         -51.5180    -2.3870    12.1400 ca         1 U5X      -0.104000
      2 C10        -52.1280     3.0780    10.1480 ca         1 U5X      -0.145000
      3 C11        -52.4340     3.0380     8.7660 cp         1 U5X      -0.032000
      4 C12        -53.3560     2.0490     8.3200 ca         1 U5X       0.405000
      5 C14        -53.6560     1.2290    10.4640 ca         1 U5X       0.287900
      6 C15        -51.7810     3.9930     7.8250 cp         1 U5X      -0.020000
      7 C16        -50.4060     3.8340     7.5390 ca         1 U5X      -0.089000
      8 C17        -49.7500     4.6970     6.6510 ca         1 U5X      -0.106000
      9 C18        -50.4600     5.7390     6.0350 ca         1 U5X      -0.074000
     10 C19        -51.8270     5.9420     6.3010 ca         1 U5X       0.264000
     11 C2         -50.1190    -2.2680    12.0790 ca         1 U5X      -0.103000
     12 C20        -52.4880     5.0640     7.2060 ca         1 U5X      -0.061000
     13 C22        -53.7790     7.1670     5.9550 ca         1 U5X       0.350900
     14 C23        -54.5030     6.3590     6.8410 ca         1 U5X      -0.165000
     15 C24        -53.8540     5.2920     7.4800 ca         1 U5X      -0.053000
     16 C3         -49.5030    -1.0570    12.4360 ca         1 U5X      -0.104000
     17 C4         -50.2850     0.0350    12.8500 ca         1 U5X      -0.102000
     18 C5         -51.6900    -0.0750    12.9100 ca         1 U5X      -0.126300
     19 C6         -52.3000    -1.2960    12.5540 ca         1 U5X      -0.102000
     20 C7         -52.5380     1.1120    13.3570 c3         1 U5X       0.262100
     21 C9         -52.7400     2.1660    11.0220 ca         1 U5X       0.271000
     22 N13        -53.9620     1.1630     9.1420 nb         1 U5X      -0.627000
     23 N21        -52.4680     6.9680     5.6900 nb         1 U5X      -0.662000
     24 N8         -52.4240     2.2230    12.3940 nu         1 U5X      -0.953200
     25 H26        -51.9950    -3.3250    11.8650 ha         1 U5X       0.115500
     26 H34        -51.4230     3.8130    10.5260 ha         1 U5X       0.124000
     27 H35        -54.1640     0.5070    11.1000 h4         1 U5X       0.032100
     28 H36        -49.8500     3.0260     8.0080 ha         1 U5X       0.118000
     29 H37        -48.6930     4.5580     6.4370 ha         1 U5X       0.119000
     30 H38        -49.9460     6.4030     5.3470 ha         1 U5X       0.133000
     31 H27        -49.5140    -3.1140    11.7580 ha         1 U5X       0.116000
     32 H39        -54.2580     8.0020     5.4450 h4         1 U5X       0.019100
     33 H40        -55.5540     6.5620     7.0270 ha         1 U5X       0.125000
     34 H41        -54.4110     4.6670     8.1740 ha         1 U5X       0.127000
     35 H28        -48.4200    -0.9640    12.3900 ha         1 U5X       0.115500
     36 H29        -49.8000     0.9700    13.1230 ha         1 U5X       0.110000
     37 H30        -53.3820    -1.4010    12.5980 ha         1 U5X       0.110000
     38 H31        -52.2000     1.4380    14.3510 h1         1 U5X       0.061700
     39 H32        -53.5880     0.8030    13.4570 h1         1 U5X       0.061700
     40 H33        -51.7960     2.9820    12.6650 hn         1 U5X       0.477000
     41 Cl25       -53.7770     1.8830     6.6190 cl         1 U5X      -0.177000
@<TRIPOS>BOND
     1     1    11 ar  
     2     1    19 ar  
     3     1    25 1   
     4     2     3 ar  
     5     2    21 ar  
     6     2    26 1   
     7     3     4 ar  
     8     3     6 1   
     9     4    22 ar  
    10     4    41 1   
    11     5    21 ar  
    12     5    22 ar  
    13     5    27 1   
    14     6     7 ar  
    15     6    12 ar  
    16     7     8 ar  
    17     7    28 1   
    18     8     9 ar  
    19     8    29 1   
    20     9    10 ar  
    21     9    30 1   
    22    10    12 ar  
    23    10    23 ar  
    24    11    16 ar  
    25    11    31 1   
    26    12    15 ar  
    27    13    14 ar  
    28    13    23 ar  
    29    13    32 1   
    30    14    15 ar  
    31    14    33 1   
    32    15    34 1   
    33    16    17 ar  
    34    16    35 1   
    35    17    18 ar  
    36    17    36 1   
    37    18    19 ar  
    38    18    20 1   
    39    19    37 1   
    40    20    24 1   
    41    20    38 1   
    42    20    39 1   
    43    21    24 1   
    44    24    40 1   
@<TRIPOS>SUBSTRUCTURE
     1 U5X         1 TEMP              0 ****  ****    0 ROOT
