@<TRIPOS>MOLECULE
U5Y
   88    93     1     0     0
SMALL
abcg2


@<TRIPOS>ATOM
      1 C02       -142.9050   -93.4000    36.7840 c          1 U5Y       0.613100
      2 O01       -144.0650   -93.1130    37.0370 o          1 U5Y      -0.583100
      3 C34       -141.9830   -94.0480    37.7940 c3         1 U5Y      -0.157400
      4 C35       -141.8970   -95.5730    37.6120 c3         1 U5Y      -0.026100
      5 C36       -143.1920   -96.2710    37.9200 ca         1 U5Y      -0.054300
      6 C37       -144.1050   -96.5370    36.9060 ca         1 U5Y      -0.154000
      7 C38       -145.3230   -97.1390    37.2040 ca         1 U5Y       0.130100
      8 C47       -145.6330   -97.4990    38.5090 ca         1 U5Y      -0.131000
      9 C48       -144.7140   -97.2430    39.5150 ca         1 U5Y      -0.085000
     10 C49       -143.5040   -96.6280    39.2290 ca         1 U5Y      -0.131000
     11 C15       -138.4850   -89.2330    34.8130 c5         1 U5Y      -0.084400
     12 C09       -139.7010   -89.6000    32.6270 ca         1 U5Y      -0.110300
     13 C13       -140.6850   -88.3090    30.8390 ca         1 U5Y      -0.107500
     14 C10       -138.7980   -90.1350    31.7100 ca         1 U5Y      -0.101000
     15 C19       -143.3150   -93.6320    33.3820 c          1 U5Y       0.589100
     16 C04       -143.0000   -92.5860    34.4590 c3         1 U5Y       0.042700
     17 C05       -142.1270   -91.4730    33.8730 c3         1 U5Y      -0.173400
     18 C06       -141.9420   -90.3440    34.8700 c          1 U5Y       0.606100
     19 C17       -140.5660   -88.5340    35.7420 c5         1 U5Y       0.100000
     20 C16       -139.2100   -87.9900    35.3100 c5         1 U5Y      -0.096400
     21 C08       -139.5860   -90.0110    34.0790 c5         1 U5Y       0.163000
     22 C14       -140.6470   -88.6850    32.1770 ca         1 U5Y      -0.101000
     23 C12       -139.7790   -88.8430    29.9340 ca         1 U5Y      -0.101000
     24 C11       -138.8320   -89.7590    30.3770 ca         1 U5Y      -0.107500
     25 N07       -140.7670   -89.6920    34.8720 n          1 U5Y      -0.418800
     26 N03       -142.3350   -93.1840    35.5800 ns         1 U5Y      -0.496900
     27 O33       -142.8320   -94.7500    33.4080 o          1 U5Y      -0.600100
     28 O18       -142.8540   -90.0160    35.6180 o          1 U5Y      -0.595100
     29 N20       -144.1350   -93.1860    32.4120 ns         1 U5Y      -0.494900
     30 C21       -144.5800   -93.9890    31.3010 c3         1 U5Y       0.029700
     31 C22       -144.4490   -93.1710    30.0200 c          1 U5Y       0.594100
     32 O32       -144.8690   -92.0260    29.9720 o          1 U5Y      -0.597100
     33 C44       -146.0490   -94.4270    31.4720 c3         1 U5Y      -0.042100
     34 C43       -146.2120   -95.2360    32.7220 ca         1 U5Y      -0.095300
     35 C42       -146.4720   -94.6130    33.9410 ca         1 U5Y      -0.089000
     36 C45       -146.0070   -96.6120    32.7120 ca         1 U5Y      -0.089000
     37 C41       -146.4900   -95.3340    35.1230 ca         1 U5Y      -0.116500
     38 C46       -146.0210   -97.3480    33.8880 ca         1 U5Y      -0.116500
     39 C40       -146.2480   -96.7000    35.0910 ca         1 U5Y       0.106100
     40 O39       -146.2510   -97.4370    36.2480 os         1 U5Y      -0.257200
     41 C24       -143.7370   -93.2790    27.6570 c3         1 U5Y       0.153300
     42 C26       -141.4220   -92.2780    27.8080 ca         1 U5Y       0.193000
     43 C28       -140.0870   -92.1980    27.4630 ca         1 U5Y      -0.158000
     44 C25       -142.2900   -93.2070    27.2500 ca         1 U5Y      -0.159300
     45 C29       -139.5880   -93.0860    26.5200 ca         1 U5Y      -0.076000
     46 C30       -140.4230   -94.0300    25.9400 ca         1 U5Y      -0.129000
     47 C31       -141.7610   -94.0830    26.3080 ca         1 U5Y      -0.076000
     48 N23       -143.8970   -93.8250    28.9880 ns         1 U5Y      -0.499900
     49 H23       -140.9780   -93.6290    37.7050 hc         1 U5Y       0.064700
     50 H24       -142.3480   -93.8180    38.7950 hc         1 U5Y       0.064700
     51 H25       -141.1150   -95.9430    38.2780 hc         1 U5Y       0.052200
     52 H26       -141.5720   -95.8020    36.5940 hc         1 U5Y       0.052200
     53 H27       -143.8570   -96.2680    35.8850 ha         1 U5Y       0.136000
     54 H34       -146.5810   -97.9730    38.7300 ha         1 U5Y       0.127000
     55 H35       -144.9510   -97.5230    40.5330 ha         1 U5Y       0.113000
     56 H36       -142.7970   -96.4270    40.0250 ha         1 U5Y       0.110000
     57 H3        -138.1290   -89.8260    35.6590 hc         1 U5Y       0.057200
     58 H4        -137.6320   -89.0190    34.1710 hc         1 U5Y       0.057200
     59 H2        -141.4280   -87.5960    30.5060 ha         1 U5Y       0.113500
     60 H1        -138.0580   -90.8530    32.0450 ha         1 U5Y       0.114500
     61 H11       -143.9400   -92.1580    34.8120 h1         1 U5Y       0.117700
     62 H12       -141.1810   -91.8970    33.5330 hc         1 U5Y       0.075200
     63 H13       -142.5980   -91.0430    32.9840 hc         1 U5Y       0.075200
     64 H5        -141.3700   -87.8090    35.6170 h1         1 U5Y       0.057700
     65 H6        -140.5570   -88.8460    36.7900 h1         1 U5Y       0.057700
     66 H18       -138.6900   -87.4920    36.1270 hc         1 U5Y       0.057200
     67 H19       -139.3300   -87.2660    34.5020 hc         1 U5Y       0.057200
     68 H14       -139.3700   -91.0810    34.1280 h1         1 U5Y       0.060700
     69 H17       -141.3670   -88.2580    32.8630 ha         1 U5Y       0.114500
     70 H16       -139.8110   -88.5510    28.8920 ha         1 U5Y       0.115000
     71 H15       -138.1200   -90.1850    29.6800 ha         1 U5Y       0.113500
     72 H37       -141.3820   -93.4870    35.4430 hn         1 U5Y       0.314500
     73 H38       -144.5560   -92.2730    32.5060 hn         1 U5Y       0.333500
     74 H7        -143.9500   -94.8780    31.2640 h1         1 U5Y       0.087700
     75 H30       -146.6820   -93.5380    31.4990 hc         1 U5Y       0.061700
     76 H31       -146.3420   -95.0080    30.5940 hc         1 U5Y       0.061700
     77 H29       -146.6570   -93.5460    33.9710 ha         1 U5Y       0.112500
     78 H32       -145.8100   -97.1170    31.7740 ha         1 U5Y       0.112500
     79 H28       -146.6800   -94.8330    36.0650 ha         1 U5Y       0.134000
     80 H33       -145.8440   -98.4160    33.8720 ha         1 U5Y       0.134000
     81 H8        -144.2060   -92.2980    27.6320 h1         1 U5Y       0.068700
     82 H9        -144.2740   -93.9090    26.9450 h1         1 U5Y       0.068700
     83 H10       -139.4510   -91.4530    27.9230 ha         1 U5Y       0.132000
     84 H20       -138.5430   -93.0350    26.2410 ha         1 U5Y       0.118000
     85 H21       -140.0360   -94.7220    25.2050 ha         1 U5Y       0.121000
     86 H22       -142.4150   -94.8190    25.8550 ha         1 U5Y       0.115000
     87 H39       -143.5720   -94.7680    29.1350 hn         1 U5Y       0.317500
     88 F27       -141.9040   -91.4170    28.7190 f          1 U5Y      -0.166000
@<TRIPOS>BOND
     1     1     2 2   
     2     1     3 1   
     3     1    26 1   
     4     3     4 1   
     5     3    49 1   
     6     3    50 1   
     7     4     5 1   
     8     4    51 1   
     9     4    52 1   
    10     5     6 ar  
    11     5    10 ar  
    12     6     7 ar  
    13     6    53 1   
    14     7     8 ar  
    15     7    40 1   
    16     8     9 ar  
    17     8    54 1   
    18     9    10 ar  
    19     9    55 1   
    20    10    56 1   
    21    11    20 1   
    22    11    21 1   
    23    11    57 1   
    24    11    58 1   
    25    12    14 ar  
    26    12    21 1   
    27    12    22 ar  
    28    13    22 ar  
    29    13    23 ar  
    30    13    59 1   
    31    14    24 ar  
    32    14    60 1   
    33    15    16 1   
    34    15    27 2   
    35    15    29 1   
    36    16    17 1   
    37    16    26 1   
    38    16    61 1   
    39    17    18 1   
    40    17    62 1   
    41    17    63 1   
    42    18    25 1   
    43    18    28 2   
    44    19    20 1   
    45    19    25 1   
    46    19    64 1   
    47    19    65 1   
    48    20    66 1   
    49    20    67 1   
    50    21    25 1   
    51    21    68 1   
    52    22    69 1   
    53    23    24 ar  
    54    23    70 1   
    55    24    71 1   
    56    26    72 1   
    57    29    30 1   
    58    29    73 1   
    59    30    31 1   
    60    30    33 1   
    61    30    74 1   
    62    31    32 2   
    63    31    48 1   
    64    33    34 1   
    65    33    75 1   
    66    33    76 1   
    67    34    35 ar  
    68    34    36 ar  
    69    35    37 ar  
    70    35    77 1   
    71    36    38 ar  
    72    36    78 1   
    73    37    39 ar  
    74    37    79 1   
    75    38    39 ar  
    76    38    80 1   
    77    39    40 1   
    78    41    44 1   
    79    41    48 1   
    80    41    81 1   
    81    41    82 1   
    82    42    43 ar  
    83    42    44 ar  
    84    42    88 1   
    85    43    45 ar  
    86    43    83 1   
    87    44    47 ar  
    88    45    46 ar  
    89    45    84 1   
    90    46    47 ar  
    91    46    85 1   
    92    47    86 1   
    93    48    87 1   
@<TRIPOS>SUBSTRUCTURE
     1 U5Y         1 TEMP              0 ****  ****    0 ROOT
