@<TRIPOS>MOLECULE
U5Y
   88    93     1     0     0
SMALL
No Charge or Current Charge


@<TRIPOS>ATOM
      1 C02        142.7990   -93.0740    36.6840 c          1 U5Y       0.613100
      2 O01       -143.9320   -92.8120    37.0600 o          1 U5Y      -0.583100
      3 C34        141.7140   -93.6010    37.6280 c3         1 U5Y      -0.157400
      4 C35       -141.6810   -95.1470    37.6650 c3         1 U5Y      -0.026100
      5 C36        143.0180   -95.7830    38.0230 ca         1 U5Y      -0.054300
      6 C37       -143.8600   -96.2730    37.0060 ca         1 U5Y      -0.154000
      7 C38        145.0930   -96.8740    37.3290 ca         1 U5Y       0.130100
      8 C47       -145.4800   -96.9980    38.6720 ca         1 U5Y      -0.131000
      9 C48        144.6460   -96.5050    39.6920 ca         1 U5Y      -0.085000
     10 C49       -143.4200   -95.8980    39.3670 ca         1 U5Y      -0.131000
     11 C15        138.6110   -90.3050    35.0900 c5         1 U5Y      -0.084400
     12 C09       -139.6860   -90.2260    32.8260 ca         1 U5Y      -0.110300
     13 C13        139.8750   -88.5740    31.0240 ca         1 U5Y      -0.107500
     14 C10       -139.1620   -91.1430    31.8910 ca         1 U5Y      -0.101000
     15 C19        143.3870   -93.5710    33.1800 c          1 U5Y       0.589100
     16 C04       -143.2780   -92.4660    34.2710 c3         1 U5Y       0.042700
     17 C05        142.8250   -91.1020    33.6800 c3         1 U5Y      -0.173400
     18 C06       -142.3340   -90.1150    34.7530 c          1 U5Y       0.606100
     19 C17        140.4280   -88.9910    35.9770 c5         1 U5Y       0.100000
     20 C16       -138.9330   -88.8720    35.5870 c5         1 U5Y      -0.096400
     21 C08        139.8820   -90.6950    34.2800 c5         1 U5Y       0.163000
     22 C14       -140.0440   -88.9330    32.3720 ca         1 U5Y      -0.101000
     23 C12        139.3520   -89.4990    30.1070 ca         1 U5Y      -0.101000
     24 C11       -138.9950   -90.7840    30.5420 ca         1 U5Y      -0.107500
     25 N07        140.9500   -89.9040    34.9370 n          1 U5Y      -0.418800
     26 N03       -142.3990   -92.9160    35.3760 ns         1 U5Y      -0.496900
     27 O33        142.7860   -94.6370    33.2430 o          1 U5Y      -0.600100
     28 O18       -143.1470   -89.4910    35.4230 o          1 U5Y      -0.595100
     29 N20        144.1990   -93.2540    32.1100 ns         1 U5Y      -0.494900
     30 C21       -144.5130   -94.1630    30.9830 c3         1 U5Y       0.029700
     31 C22        144.4890   -93.3690    29.6490 c          1 U5Y       0.594100
     32 O32       -144.6990   -92.1630    29.5900 o          1 U5Y      -0.597100
     33 C44        145.8780   -94.8670    31.2080 c3         1 U5Y      -0.042100
     34 C43       -145.9650   -95.5630    32.5640 ca         1 U5Y      -0.095300
     35 C42        146.4340   -94.8590    33.6920 ca         1 U5Y      -0.089000
     36 C45       -145.5260   -96.8940    32.7100 ca         1 U5Y      -0.089000
     37 C41        146.4290   -95.4670    34.9590 ca         1 U5Y      -0.116500
     38 C46       -145.5370   -97.5080    33.9760 ca         1 U5Y      -0.116500
     39 C40        145.9720   -96.7870    35.0990 ca         1 U5Y       0.106100
     40 O39       -145.9200   -97.3670    36.3440 os         1 U5Y      -0.257200
     41 C24        143.9550   -93.5410    27.2030 c3         1 U5Y       0.153300
     42 C26       -142.4820   -91.4670    26.8890 ca         1 U5Y       0.193000
     43 C28        141.2210   -90.8500    26.8420 ca         1 U5Y      -0.158000
     44 C25       -142.5940   -92.8540    27.1280 ca         1 U5Y      -0.159300
     45 C29        140.0560   -91.6120    27.0310 ca         1 U5Y      -0.076000
     46 C30       -140.1580   -92.9930    27.2670 ca         1 U5Y      -0.129000
     47 C31        141.4190   -93.6120    27.3140 ca         1 U5Y      -0.076000
     48 N23       -144.1850   -94.1120    28.5300 ns         1 U5Y      -0.499900
     49 H23        140.7300   -93.2750    37.2700 hc         1 U5Y       0.064700
     50 H24       -141.9000   -93.2240    38.6400 hc         1 U5Y       0.064700
     51 H25        140.9150   -95.4660    38.3830 hc         1 U5Y       0.052200
     52 H26       -141.3420   -95.5170    36.6880 hc         1 U5Y       0.052200
     53 H27        143.5510   -96.1900    35.9670 ha         1 U5Y       0.136000
     54 H34       -146.4270   -97.4690    38.9220 ha         1 U5Y       0.127000
     55 H35        144.9490   -96.5960    40.7330 ha         1 U5Y       0.113000
     56 H36       -142.7790   -95.5230    40.1620 ha         1 U5Y       0.110000
     57 H3         138.4800   -90.9840    35.9410 hc         1 U5Y       0.057200
     58 H4        -137.6900   -90.3560    34.4970 hc         1 U5Y       0.057200
     59 H2         140.1540   -87.5780    30.6890 ha         1 U5Y       0.113500
     60 H1        -138.8860   -92.1450    32.2100 ha         1 U5Y       0.114500
     61 H11        144.2960   -92.3370    34.6640 h1         1 U5Y       0.117700
     62 H12       -142.0370   -91.3090    32.9530 hc         1 U5Y       0.075200
     63 H13        143.6760   -90.6490    33.1600 hc         1 U5Y       0.075200
     64 H5        -140.9310   -88.0150    35.9670 h1         1 U5Y       0.057700
     65 H6         140.5500   -89.4360    36.9740 h1         1 U5Y       0.057700
     66 H18       -138.3050   -88.5660    36.4310 hc         1 U5Y       0.057200
     67 H19        138.7850   -88.1320    34.7930 hc         1 U5Y       0.057200
     68 H14       -140.0720   -91.7760    34.3280 h1         1 U5Y       0.060700
     69 H17        140.4600   -88.1980    33.0570 ha         1 U5Y       0.114500
     70 H16       -139.2250   -89.2210    29.0630 ha         1 U5Y       0.115000
     71 H15        138.5920   -91.5050    29.8340 ha         1 U5Y       0.113500
     72 H37       -141.4650   -93.2380    35.1490 hn         1 U5Y       0.314500
     73 H38        144.6210   -92.3320    32.1070 hn         1 U5Y       0.333500
     74 H7        -143.7300   -94.9280    30.9160 h1         1 U5Y       0.087700
     75 H30        146.6810   -94.1240    31.1210 hc         1 U5Y       0.061700
     76 H31       -146.0480   -95.5900    30.4000 hc         1 U5Y       0.061700
     77 H29        146.7750   -93.8310    33.5930 ha         1 U5Y       0.112500
     78 H32       -145.1580   -97.4460    31.8480 ha         1 U5Y       0.112500
     79 H28        146.7650   -94.9120    35.8310 ha         1 U5Y       0.134000
     80 H33       -145.1820   -98.5290    34.0900 ha         1 U5Y       0.134000
     81 H8         144.7670   -92.8390    26.9690 h1         1 U5Y       0.068700
     82 H9        -143.9950   -94.3480    26.4590 h1         1 U5Y       0.068700
     83 H10        141.1500   -89.7810    26.6580 ha         1 U5Y       0.132000
     84 H20       -139.0790   -91.1350    26.9940 ha         1 U5Y       0.118000
     85 H21        139.2570   -93.5860    27.4140 ha         1 U5Y       0.121000
     86 H22       -141.4830   -94.6820    27.5000 ha         1 U5Y       0.115000
     87 H39        144.0290   -95.1040    28.6610 hn         1 U5Y       0.317500
     88 F27       -143.5860   -90.7100    26.6980 f          1 U5Y      -0.166000
@<TRIPOS>BOND
     1     1     2 2   
     2     1     3 1   
     3     1    26 1   
     4     3     4 1   
     5     3    49 1   
     6     3    50 1   
     7     4     5 1   
     8     4    51 1   
     9     4    52 1   
    10     5     6 ar  
    11     5    10 ar  
    12     6     7 ar  
    13     6    53 1   
    14     7     8 ar  
    15     7    40 1   
    16     8     9 ar  
    17     8    54 1   
    18     9    10 ar  
    19     9    55 1   
    20    10    56 1   
    21    11    20 1   
    22    11    21 1   
    23    11    57 1   
    24    11    58 1   
    25    12    14 ar  
    26    12    21 1   
    27    12    22 ar  
    28    13    22 ar  
    29    13    23 ar  
    30    13    59 1   
    31    14    24 ar  
    32    14    60 1   
    33    15    16 1   
    34    15    27 2   
    35    15    29 1   
    36    16    17 1   
    37    16    26 1   
    38    16    61 1   
    39    17    18 1   
    40    17    62 1   
    41    17    63 1   
    42    18    25 1   
    43    18    28 2   
    44    19    20 1   
    45    19    25 1   
    46    19    64 1   
    47    19    65 1   
    48    20    66 1   
    49    20    67 1   
    50    21    25 1   
    51    21    68 1   
    52    22    69 1   
    53    23    24 ar  
    54    23    70 1   
    55    24    71 1   
    56    26    72 1   
    57    29    30 1   
    58    29    73 1   
    59    30    31 1   
    60    30    33 1   
    61    30    74 1   
    62    31    32 2   
    63    31    48 1   
    64    33    34 1   
    65    33    75 1   
    66    33    76 1   
    67    34    35 ar  
    68    34    36 ar  
    69    35    37 ar  
    70    35    77 1   
    71    36    38 ar  
    72    36    78 1   
    73    37    39 ar  
    74    37    79 1   
    75    38    39 ar  
    76    38    80 1   
    77    39    40 1   
    78    41    44 1   
    79    41    48 1   
    80    41    81 1   
    81    41    82 1   
    82    42    43 ar  
    83    42    44 ar  
    84    42    88 1   
    85    43    45 ar  
    86    43    83 1   
    87    44    47 ar  
    88    45    46 ar  
    89    45    84 1   
    90    46    47 ar  
    91    46    85 1   
    92    47    86 1   
    93    48    87 1   
@<TRIPOS>SUBSTRUCTURE
     1 U5Y         1 TEMP              0 ****  ****    0 ROOT
