@<TRIPOS>MOLECULE
U5Z
   20    20     1     0     0
SMALL
abcg2


@<TRIPOS>ATOM
      1 C01         20.1310    -8.3150    -4.1070 ca         1 U5Z      -0.123000
      2 C02         18.8690    -8.3840    -4.6740 ca         1 U5Z      -0.119500
      3 C03         18.3980    -9.6060    -5.1150 ca         1 U5Z       0.149000
      4 C04         19.1590   -10.7520    -5.0060 ca         1 U5Z      -0.119500
      5 C05         20.4220   -10.6790    -4.4350 ca         1 U5Z      -0.123000
      6 C06         20.9180    -9.4600    -3.9780 ca         1 U5Z       0.228000
      7 C09         23.5020   -11.2090    -2.7000 cs         1 U5Z       0.497400
      8 F12         17.1710    -9.6790    -5.6630 f          1 U5Z      -0.175000
      9 N07         22.1640    -9.3610    -3.3470 nu         1 U5Z      -0.709200
     10 N08         23.0950   -10.3220    -3.6290 ns         1 U5Z      -0.334300
     11 N11         22.9820   -11.0930    -1.4860 nt         1 U5Z      -0.529000
     12 S10         24.6240   -12.3920    -3.1160 s          1 U5Z      -0.672400
     13 H1          20.5080    -7.3590    -3.7640 ha         1 U5Z       0.126500
     14 H2          18.2640    -7.4920    -4.7720 ha         1 U5Z       0.136500
     15 H3          18.7770   -11.7010    -5.3620 ha         1 U5Z       0.136500
     16 H4          21.0120   -11.5820    -4.3530 ha         1 U5Z       0.126500
     17 H5          22.5580    -8.4290    -3.3330 hn         1 U5Z       0.472000
     18 H6          23.4710   -10.4030    -4.5640 hn         1 U5Z       0.355500
     19 H7          23.2560   -11.7380    -0.7660 hn         1 U5Z       0.339000
     20 H8          22.3120   -10.3710    -1.2690 hn         1 U5Z       0.339000
@<TRIPOS>BOND
     1     1     2 ar  
     2     1     6 ar  
     3     1    13 1   
     4     2     3 ar  
     5     2    14 1   
     6     3     4 ar  
     7     3     8 1   
     8     4     5 ar  
     9     4    15 1   
    10     5     6 ar  
    11     5    16 1   
    12     6     9 1   
    13     7    10 1   
    14     7    11 1   
    15     7    12 2   
    16     9    10 1   
    17     9    17 1   
    18    10    18 1   
    19    11    19 1   
    20    11    20 1   
@<TRIPOS>SUBSTRUCTURE
     1 U5Z         1 TEMP              0 ****  ****    0 ROOT
