@<TRIPOS>MOLECULE
U5Z
   20    20     1     0     0
SMALL
No Charge or Current Charge


@<TRIPOS>ATOM
      1 C01         20.0910    -8.2950    -4.1110 ca         1 U5Z      -0.123000
      2 C02         18.8170    -8.3350    -4.7080 ca         1 U5Z      -0.119500
      3 C03         18.3070    -9.5530    -5.1830 ca         1 U5Z       0.149000
      4 C04         19.0610   -10.7310    -5.0630 ca         1 U5Z      -0.119500
      5 C05         20.3350   -10.6890    -4.4660 ca         1 U5Z      -0.123000
      6 C06         20.8600    -9.4690    -3.9900 ca         1 U5Z       0.228000
      7 C09         23.6710   -11.2540    -2.6590 cs         1 U5Z       0.497400
      8 F12         17.0840    -9.5930    -5.7550 f          1 U5Z      -0.175000
      9 N07         22.1250    -9.4000    -3.3860 nu         1 U5Z      -0.709200
     10 N08         23.1280   -10.4220    -3.6110 ns         1 U5Z      -0.334300
     11 N11         23.1150   -11.1110    -1.4520 nt         1 U5Z      -0.529000
     12 S10         24.8820   -12.3560    -2.9520 s          1 U5Z      -0.672400
     13 H1          20.4810    -7.3500    -3.7430 ha         1 U5Z       0.126500
     14 H2          18.2260    -7.4270    -4.8010 ha         1 U5Z       0.136500
     15 H3          18.6580   -11.6720    -5.4290 ha         1 U5Z       0.136500
     16 H4          20.9080   -11.6070    -4.3710 ha         1 U5Z       0.126500
     17 H5          22.5130    -8.4650    -3.1980 hn         1 U5Z       0.472000
     18 H6          23.5370   -10.4860    -4.5450 hn         1 U5Z       0.355500
     19 H7          23.4230   -11.6730    -0.6740 hn         1 U5Z       0.339000
     20 H8          22.3700   -10.4390    -1.3440 hn         1 U5Z       0.339000
@<TRIPOS>BOND
     1     1     2 ar  
     2     1     6 ar  
     3     1    13 1   
     4     2     3 ar  
     5     2    14 1   
     6     3     4 ar  
     7     3     8 1   
     8     4     5 ar  
     9     4    15 1   
    10     5     6 ar  
    11     5    16 1   
    12     6     9 1   
    13     7    10 1   
    14     7    11 1   
    15     7    12 2   
    16     9    10 1   
    17     9    17 1   
    18    10    18 1   
    19    11    19 1   
    20    11    20 1   
@<TRIPOS>SUBSTRUCTURE
     1 U5Z         1 TEMP              0 ****  ****    0 ROOT
