@<TRIPOS>MOLECULE
U60
   56    60     1     0     0
SMALL
No Charge or Current Charge


@<TRIPOS>ATOM
      1 C10         31.4730   -17.6870    24.7390 c6         1 U60      -0.021100
      2 C13         36.0580   -22.5770    21.9120 ca         1 U60      -0.126000
      3 C15         35.7720   -21.0430    20.0340 ca         1 U60      -0.035300
      4 C17         36.3260   -20.5520    18.6950 c3         1 U60      -0.049800
      5 C21         32.1540   -20.9050    18.8610 cx         1 U60       0.116300
      6 C24         34.3270   -22.5810    23.7980 cx         1 U60      -0.059400
      7 C26         35.2100   -23.1220    24.9020 cx         1 U60      -0.136400
      8 C28         30.7650   -20.3910    19.1470 cx         1 U60      -0.158900
      9 C01         31.5610   -18.9510    23.8630 ca         1 U60      -0.159300
     10 C02         32.8000   -19.3700    23.3030 ca         1 U60      -0.000300
     11 C03         32.8520   -20.5510    22.5030 cp         1 U60      -0.041000
     12 C04         31.6680   -21.2930    22.2990 ca         1 U60      -0.073000
     13 C05         30.4500   -20.8740    22.8430 ca         1 U60      -0.154000
     14 C06         30.3880   -19.7030    23.6050 ca         1 U60       0.123100
     15 C08         28.9800   -17.9880    24.6090 c6         1 U60       0.162600
     16 C09         30.1510   -17.6070    25.5270 c6         1 U60      -0.111400
     17 C11         34.1220   -21.0440    21.8730 cp         1 U60      -0.030000
     18 C12         34.8900   -22.0720    22.4920 ca         1 U60      -0.062300
     19 C14         36.4940   -22.0590    20.6900 ca         1 U60      -0.131000
     20 C16         34.5800   -20.5180    20.6190 ca         1 U60      -0.023300
     21 C18         33.7700   -19.4070    19.8990 c3         1 U60       0.053600
     22 C19         34.6130   -18.1050    19.6420 c          1 U60       0.727000
     23 C25         34.4920   -21.8100    25.0890 cx         1 U60      -0.136400
     24 C27         34.0630   -18.5480    23.5760 c3         1 U60      -0.049800
     25 C29         31.0950   -20.9710    17.7910 cx         1 U60      -0.158900
     26 O07         29.1580   -19.3260    24.1070 os         1 U60      -0.363100
     27 O20         33.1740   -19.9470    18.6840 os         1 U60      -0.399000
     28 O22         34.6420   -17.6160    18.5180 o          1 U60      -0.710000
     29 O23         35.2090   -17.6040    20.5880 o          1 U60      -0.710000
     30 H1          32.3050   -17.6430    25.4540 hc         1 U60       0.052200
     31 H2          31.5670   -16.8010    24.0960 hc         1 U60       0.052200
     32 H3          36.6210   -23.3700    22.3970 ha         1 U60       0.092000
     33 H4          36.7960   -19.5680    18.7980 hc         1 U60       0.050367
     34 H5          37.0910   -21.2310    18.3010 hc         1 U60       0.050367
     35 H6          35.5490   -20.4840    17.9260 hc         1 U60       0.050367
     36 H7          32.4730   -21.8360    19.3300 h1         1 U60       0.055700
     37 H8          33.3850   -23.1060    23.6580 hc         1 U60       0.081700
     38 H9          34.8490   -23.9820    25.4620 hc         1 U60       0.064950
     39 H10         36.2880   -23.0850    24.7720 hc         1 U60       0.064950
     40 H11         30.6280   -19.3150    19.2220 hc         1 U60       0.068450
     41 H12         30.1330   -20.9790    19.8060 hc         1 U60       0.068450
     42 H13         31.7030   -22.2020    21.7030 ha         1 U60       0.115000
     43 H14         29.5470   -21.4530    22.6650 ha         1 U60       0.115000
     44 H15         28.9300   -17.2930    23.7590 h1         1 U60       0.047200
     45 H16         28.0270   -17.9330    25.1550 h1         1 U60       0.047200
     46 H17         30.0080   -16.5950    25.9310 hc         1 U60       0.044700
     47 H18         30.1820   -18.2930    26.3840 hc         1 U60       0.044700
     48 H19         37.4030   -22.4580    20.2450 ha         1 U60       0.094000
     49 H20         32.9610   -19.0610    20.5510 h1         1 U60       0.040700
     50 H21         35.0930   -20.9060    25.0700 hc         1 U60       0.064950
     51 H22         33.6440   -21.7810    25.7680 hc         1 U60       0.064950
     52 H23         33.9340   -17.5100    23.2490 hc         1 U60       0.050700
     53 H24         34.3020   -18.5370    24.6450 hc         1 U60       0.050700
     54 H25         34.9480   -18.9370    23.0630 hc         1 U60       0.050700
     55 H26         31.1790   -20.2860    16.9520 hc         1 U60       0.068450
     56 H27         30.6910   -21.9500    17.5450 hc         1 U60       0.068450
@<TRIPOS>BOND
     1     1     9 1   
     2     1    16 1   
     3     1    30 1   
     4     1    31 1   
     5     2    18 ar  
     6     2    19 ar  
     7     2    32 1   
     8     3     4 1   
     9     3    19 ar  
    10     3    20 ar  
    11     4    33 1   
    12     4    34 1   
    13     4    35 1   
    14     5     8 1   
    15     5    25 1   
    16     5    27 1   
    17     5    36 1   
    18     6     7 1   
    19     6    18 1   
    20     6    23 1   
    21     6    37 1   
    22     7    23 1   
    23     7    38 1   
    24     7    39 1   
    25     8    25 1   
    26     8    40 1   
    27     8    41 1   
    28     9    10 ar  
    29     9    14 ar  
    30    10    11 ar  
    31    10    24 1   
    32    11    12 ar  
    33    11    17 1   
    34    12    13 ar  
    35    12    42 1   
    36    13    14 ar  
    37    13    43 1   
    38    14    26 1   
    39    15    16 1   
    40    15    26 1   
    41    15    44 1   
    42    15    45 1   
    43    16    46 1   
    44    16    47 1   
    45    17    18 ar  
    46    17    20 ar  
    47    19    48 1   
    48    20    21 1   
    49    21    22 1   
    50    21    27 1   
    51    21    49 1   
    52    22    28 1   
    53    22    29 1   
    54    23    50 1   
    55    23    51 1   
    56    24    52 1   
    57    24    53 1   
    58    24    54 1   
    59    25    55 1   
    60    25    56 1   
@<TRIPOS>SUBSTRUCTURE
     1 U60         1 TEMP              0 ****  ****    0 ROOT
