@<TRIPOS>MOLECULE
U60
   56    60     1     0     0
SMALL
abcg2


@<TRIPOS>ATOM
      1 C10         31.5530   -17.7910    24.9990 c6         1 U60      -0.021100
      2 C13         35.9750   -22.3170    22.0560 ca         1 U60      -0.126000
      3 C15         35.6730   -20.9720    20.0610 ca         1 U60      -0.035300
      4 C17         36.2050   -20.5280    18.7230 c3         1 U60      -0.049800
      5 C21         32.2780   -21.1060    18.6350 cx         1 U60       0.116300
      6 C24         34.3110   -22.2710    23.9480 cx         1 U60      -0.059400
      7 C26         35.0510   -23.2490    24.8190 cx         1 U60      -0.136400
      8 C28         30.8280   -20.7390    18.7270 cx         1 U60      -0.158900
      9 C01         31.5620   -18.8950    23.9670 ca         1 U60      -0.159300
     10 C02         32.7700   -19.3420    23.3990 ca         1 U60      -0.000300
     11 C03         32.7670   -20.3850    22.4630 cp         1 U60      -0.041000
     12 C04         31.5540   -20.9870    22.1240 ca         1 U60      -0.073000
     13 C05         30.3590   -20.5480    22.6620 ca         1 U60      -0.154000
     14 C06         30.3620   -19.4940    23.5730 ca         1 U60       0.123100
     15 C08         29.0850   -17.8410    24.7240 c6         1 U60       0.162600
     16 C09         30.2130   -17.7080    25.7250 c6         1 U60      -0.111400
     17 C11         34.0330   -20.9070    21.8610 cp         1 U60      -0.030000
     18 C12         34.7900   -21.8380    22.6040 ca         1 U60      -0.062300
     19 C14         36.4090   -21.8820    20.8110 ca         1 U60      -0.131000
     20 C16         34.4620   -20.4830    20.5920 ca         1 U60      -0.023300
     21 C18         33.6210   -19.5150    19.7800 c3         1 U60       0.053600
     22 C19         34.2920   -18.1280    19.5410 c          1 U60       0.727000
     23 C25         35.0090   -21.7980    25.2070 cx         1 U60      -0.136400
     24 C27         34.0560   -18.6870    23.8310 c3         1 U60      -0.049800
     25 C29         31.4030   -21.3120    17.4470 cx         1 U60      -0.158900
     26 O07         29.1390   -19.1120    24.0580 os         1 U60      -0.363100
     27 O20         33.2250   -20.0840    18.5250 os         1 U60      -0.399000
     28 O22         34.0970   -17.5640    18.4420 o          1 U60      -0.710000
     29 O23         34.9290   -17.6670    20.5200 o          1 U60      -0.710000
     30 H1          32.3580   -17.9500    25.7190 hc         1 U60       0.052200
     31 H2          31.7690   -16.8330    24.5130 hc         1 U60       0.052200
     32 H3          36.5710   -23.0410    22.5960 ha         1 U60       0.092000
     33 H4          36.3690   -19.4490    18.6990 hc         1 U60       0.050367
     34 H5          37.1570   -21.0170    18.5150 hc         1 U60       0.050367
     35 H6          35.5080   -20.7580    17.9180 hc         1 U60       0.050367
     36 H7          32.6160   -21.9810    19.1830 h1         1 U60       0.055700
     37 H8          33.2340   -22.3130    24.0330 hc         1 U60       0.081700
     38 H9          34.4530   -23.9470    25.3890 hc         1 U60       0.064950
     39 H10         35.9930   -23.6510    24.4740 hc         1 U60       0.064950
     40 H11         30.5950   -19.6820    18.7320 hc         1 U60       0.068450
     41 H12         30.1750   -21.3560    19.3290 hc         1 U60       0.068450
     42 H13         31.5520   -21.8020    21.4140 ha         1 U60       0.115000
     43 H14         29.4160   -21.0030    22.3840 ha         1 U60       0.115000
     44 H15         29.1430   -17.0470    23.9700 h1         1 U60       0.047200
     45 H16         28.1050   -17.8050    25.1970 h1         1 U60       0.047200
     46 H17         30.1200   -16.7620    26.2610 hc         1 U60       0.044700
     47 H18         30.1280   -18.5140    26.4600 hc         1 U60       0.044700
     48 H19         37.3400   -22.2640    20.4090 ha         1 U60       0.094000
     49 H20         32.7150   -19.2850    20.3470 h1         1 U60       0.040700
     50 H21         35.9130   -21.2190    25.0690 hc         1 U60       0.064950
     51 H22         34.3950   -21.4960    26.0450 hc         1 U60       0.064950
     52 H23         34.0100   -17.6040    23.6970 hc         1 U60       0.050700
     53 H24         34.2510   -18.8720    24.8900 hc         1 U60       0.050700
     54 H25         34.8990   -19.0620    23.2590 hc         1 U60       0.050700
     55 H26         31.5390   -20.6290    16.6190 hc         1 U60       0.068450
     56 H27         31.1440   -22.3260    17.1690 hc         1 U60       0.068450
@<TRIPOS>BOND
     1     1     9 1   
     2     1    16 1   
     3     1    30 1   
     4     1    31 1   
     5     2    18 ar  
     6     2    19 ar  
     7     2    32 1   
     8     3     4 1   
     9     3    19 ar  
    10     3    20 ar  
    11     4    33 1   
    12     4    34 1   
    13     4    35 1   
    14     5     8 1   
    15     5    25 1   
    16     5    27 1   
    17     5    36 1   
    18     6     7 1   
    19     6    18 1   
    20     6    23 1   
    21     6    37 1   
    22     7    23 1   
    23     7    38 1   
    24     7    39 1   
    25     8    25 1   
    26     8    40 1   
    27     8    41 1   
    28     9    10 ar  
    29     9    14 ar  
    30    10    11 ar  
    31    10    24 1   
    32    11    12 ar  
    33    11    17 1   
    34    12    13 ar  
    35    12    42 1   
    36    13    14 ar  
    37    13    43 1   
    38    14    26 1   
    39    15    16 1   
    40    15    26 1   
    41    15    44 1   
    42    15    45 1   
    43    16    46 1   
    44    16    47 1   
    45    17    18 ar  
    46    17    20 ar  
    47    19    48 1   
    48    20    21 1   
    49    21    22 1   
    50    21    27 1   
    51    21    49 1   
    52    22    28 1   
    53    22    29 1   
    54    23    50 1   
    55    23    51 1   
    56    24    52 1   
    57    24    53 1   
    58    24    54 1   
    59    25    55 1   
    60    25    56 1   
@<TRIPOS>SUBSTRUCTURE
     1 U60         1 TEMP              0 ****  ****    0 ROOT
