@<TRIPOS>MOLECULE
U61
   57    61     1     0     0
SMALL
abcg2


@<TRIPOS>ATOM
      1 CAF        -57.0580    21.0430    35.2390 ca         1 U61      -0.069000
      2 CAG        -57.7250    19.8320    35.1430 ca         1 U61      -0.155500
      3 CAH        -57.9520    19.1050    36.2950 ca         1 U61       0.171000
      4 FAI        -58.5930    17.9300    36.2110 f          1 U61      -0.180000
      5 CAJ        -57.5350    19.5530    37.5340 ca         1 U61      -0.155500
      6 CAK        -56.8700    20.7660    37.6140 ca         1 U61      -0.069000
      7 CAE        -56.6200    21.5290    36.4720 ca         1 U61      -0.113500
      8 CAD        -55.9100    22.8010    36.5600 cc         1 U61       0.252500
      9 CAL        -55.3540    23.4250    37.6520 cd         1 U61      -0.169000
     10 NAC        -55.6720    23.5850    35.4820 nc         1 U61      -0.353000
     11 NAB        -55.0180    24.6300    35.8480 nd         1 U61      -0.203800
     12 NAA        -54.8250    24.5530    37.1540 na         1 U61       0.124800
     13 CBH        -54.0230    25.5410    37.8400 c3         1 U61       0.091600
     14 CAX        -52.5660    25.1120    37.8890 c6         1 U61       0.145300
     15 CBC        -51.6930    26.1520    38.5960 c6         1 U61       0.137300
     16 OBD        -51.7010    27.3290    37.8320 oh         1 U61      -0.705000
     17 OAY        -52.5150    23.8880    38.5710 os         1 U61      -0.433000
     18 CAZ        -51.2330    23.3000    38.5870 c6         1 U61       0.144300
     19 CBF        -51.3500    21.9200    39.1970 c3         1 U61       0.170600
     20 OBG        -52.1470    21.1210    38.3560 oh         1 U61      -0.702000
     21 CBA        -50.2580    24.1950    39.3550 c6         1 U61       0.131300
     22 OBE        -50.6240    24.3420    40.7030 oh         1 U61      -0.714000
     23 CBB        -50.2770    25.5710    38.6890 c6         1 U61       0.053300
     24 NAM        -49.3620    26.4920    39.3290 na         1 U61       0.121800
     25 CAW        -49.4540    27.1050    40.5210 cc         1 U61      -0.194000
     26 NAN        -48.2340    26.8220    38.7170 nc         1 U61      -0.197800
     27 NAO        -47.5910    27.6310    39.4770 nd         1 U61      -0.351000
     28 CAP        -48.3000    27.8480    40.6100 cd         1 U61       0.257500
     29 CAQ        -47.8330    28.7360    41.6730 ca         1 U61      -0.109500
     30 CAR        -48.5970    28.9450    42.8220 ca         1 U61      -0.093000
     31 CAS        -48.1510    29.7950    43.8220 ca         1 U61      -0.113000
     32 CAT        -46.9340    30.4510    43.6940 ca         1 U61      -0.104000
     33 CAU        -46.1660    30.2470    42.5550 ca         1 U61      -0.113000
     34 CAV        -46.6100    29.3970    41.5540 ca         1 U61      -0.093000
     35 H1         -56.8760    21.6140    34.3390 ha         1 U61       0.124500
     36 H2         -58.0610    19.4610    34.1830 ha         1 U61       0.130500
     37 H3         -57.7240    18.9670    38.4240 ha         1 U61       0.130500
     38 H4         -56.5460    21.1130    38.5860 ha         1 U61       0.124500
     39 H5         -55.3030    23.1720    38.6970 h4         1 U61       0.172000
     40 H6         -54.1260    26.4850    37.3090 h1         1 U61       0.085700
     41 H7         -54.4220    25.6690    38.8470 h1         1 U61       0.085700
     42 H8         -52.1980    24.9950    36.8560 h1         1 U61       0.075700
     43 H9         -52.1010    26.3200    39.6000 h1         1 U61       0.061700
     44 H10        -51.5990    28.0890    38.4130 ho         1 U61       0.521000
     45 H11        -50.8510    23.1970    37.5570 h1         1 U61       0.065700
     46 H12        -50.3360    21.5140    39.3060 h1         1 U61       0.029200
     47 H13        -51.7780    22.0010    40.2030 h1         1 U61       0.029200
     48 H14        -52.2660    20.2670    38.7810 ho         1 U61       0.510000
     49 H15        -49.2480    23.7820    39.2530 h1         1 U61       0.062700
     50 H16        -50.1270    23.7160    41.2380 ho         1 U61       0.516000
     51 H17        -49.8970    25.4550    37.6700 h1         1 U61       0.110700
     52 H18        -50.2920    26.9830    41.1850 h4         1 U61       0.175000
     53 H19        -49.5510    28.4460    42.9420 ha         1 U61       0.119500
     54 H20        -48.7590    29.9450    44.7050 ha         1 U61       0.113500
     55 H21        -46.5870    31.1160    44.4750 ha         1 U61       0.114000
     56 H22        -45.2160    30.7530    42.4440 ha         1 U61       0.113500
     57 H23        -46.0000    29.2490    40.6720 ha         1 U61       0.119500
@<TRIPOS>BOND
     1     1     2 ar  
     2     1     7 ar  
     3     1    35 1   
     4     2     3 ar  
     5     2    36 1   
     6     3     4 1   
     7     3     5 ar  
     8     5     6 ar  
     9     5    37 1   
    10     6     7 ar  
    11     6    38 1   
    12     7     8 1   
    13     8     9 2   
    14     8    10 1   
    15     9    12 1   
    16     9    39 1   
    17    10    11 2   
    18    11    12 1   
    19    12    13 1   
    20    13    14 1   
    21    13    40 1   
    22    13    41 1   
    23    14    15 1   
    24    14    17 1   
    25    14    42 1   
    26    15    16 1   
    27    15    23 1   
    28    15    43 1   
    29    16    44 1   
    30    17    18 1   
    31    18    19 1   
    32    18    21 1   
    33    18    45 1   
    34    19    20 1   
    35    19    46 1   
    36    19    47 1   
    37    20    48 1   
    38    21    22 1   
    39    21    23 1   
    40    21    49 1   
    41    22    50 1   
    42    23    24 1   
    43    23    51 1   
    44    24    25 1   
    45    24    26 1   
    46    25    28 2   
    47    25    52 1   
    48    26    27 2   
    49    27    28 1   
    50    28    29 1   
    51    29    30 ar  
    52    29    34 ar  
    53    30    31 ar  
    54    30    53 1   
    55    31    32 ar  
    56    31    54 1   
    57    32    33 ar  
    58    32    55 1   
    59    33    34 ar  
    60    33    56 1   
    61    34    57 1   
@<TRIPOS>SUBSTRUCTURE
     1 U61         1 TEMP              0 ****  ****    0 ROOT
