@<TRIPOS>MOLECULE
U61
   57    61     1     0     0
SMALL
No Charge or Current Charge


@<TRIPOS>ATOM
      1 CAF        -57.7900    21.4220    35.4220 ca         1 U61      -0.069000
      2 CAG        -58.4370    20.1760    35.3380 ca         1 U61      -0.155500
      3 CAH        -58.0470    19.1270    36.1820 ca         1 U61       0.171000
      4 FAI        -58.6670    17.9300    36.0990 f          1 U61      -0.180000
      5 CAJ        -57.0120    19.3150    37.1070 ca         1 U61      -0.155500
      6 CAK        -56.3640    20.5600    37.1950 ca         1 U61      -0.069000
      7 CAE        -56.7550    21.6350    36.3620 ca         1 U61      -0.113500
      8 CAD        -56.0720    22.9370    36.4210 cc         1 U61       0.252500
      9 CAL        -55.2650    23.2990    37.4520 cd         1 U61      -0.169000
     10 NAC        -56.1780    23.9280    35.4900 nc         1 U61      -0.353000
     11 NAB        -55.4360    24.9310    35.8910 nd         1 U61      -0.203800
     12 NAA        -54.8640    24.5670    37.0890 na         1 U61       0.124800
     13 CBH        -53.9650    25.4710    37.8240 c3         1 U61       0.091600
     14 CAX        -52.4870    24.9980    37.8920 c6         1 U61       0.145300
     15 CBC        -51.5420    26.0670    38.5320 c6         1 U61       0.137300
     16 OBD        -51.5060    27.2530    37.7110 oh         1 U61      -0.705000
     17 OAY        -52.4600    23.7710    38.6610 os         1 U61      -0.433000
     18 CAZ        -51.1490    23.1590    38.7500 c6         1 U61       0.144300
     19 CBF        -51.2960    21.7570    39.4280 c3         1 U61       0.170600
     20 OBG        -52.1810    20.8730    38.7120 oh         1 U61      -0.702000
     21 CBA        -50.1640    24.1160    39.5000 c6         1 U61       0.131300
     22 OBE        -50.5830    24.3500    40.8670 oh         1 U61      -0.714000
     23 CBB        -50.1110    25.4610    38.7070 c6         1 U61       0.053300
     24 NAM        -49.1520    26.4210    39.3090 na         1 U61       0.121800
     25 CAW        -49.3390    27.1490    40.4620 cc         1 U61      -0.194000
     26 NAN        -47.9420    26.7050    38.7450 nc         1 U61      -0.197800
     27 NAO        -47.3620    27.5870    39.5130 nd         1 U61      -0.351000
     28 CAP        -48.1910    27.8800    40.5770 cd         1 U61       0.257500
     29 CAQ        -47.8400    28.8400    41.6460 ca         1 U61      -0.109500
     30 CAR        -48.7360    29.0910    42.7100 ca         1 U61      -0.093000
     31 CAS        -48.4040    30.0040    43.7260 ca         1 U61      -0.113000
     32 CAT        -47.1730    30.6780    43.6940 ca         1 U61      -0.104000
     33 CAU        -46.2740    30.4370    42.6430 ca         1 U61      -0.113000
     34 CAV        -46.6040    29.5250    41.6260 ca         1 U61      -0.093000
     35 H1         -58.1040    22.2250    34.7580 ha         1 U61       0.124500
     36 H2         -59.2360    20.0230    34.6170 ha         1 U61       0.130500
     37 H3         -56.7090    18.4950    37.7530 ha         1 U61       0.130500
     38 H4         -55.5530    20.6750    37.9110 ha         1 U61       0.124500
     39 H5         -54.9530    22.7980    38.3580 h4         1 U61       0.172000
     40 H6         -53.9990    26.4550    37.3410 h1         1 U61       0.085700
     41 H7         -54.3470    25.5900    38.8450 h1         1 U61       0.085700
     42 H8         -52.1480    24.7840    36.8670 h1         1 U61       0.075700
     43 H9         -51.9420    26.3140    39.5280 h1         1 U61       0.061700
     44 H10        -51.0240    27.9510    38.2140 ho         1 U61       0.521000
     45 H11        -50.7720    22.9880    37.7300 h1         1 U61       0.065700
     46 H12        -50.2960    21.3060    39.4990 h1         1 U61       0.029200
     47 H13        -51.6640    21.9010    40.4520 h1         1 U61       0.029200
     48 H14        -52.2310    20.0350    39.2280 ho         1 U61       0.510000
     49 H15        -49.1580    23.6680    39.4840 h1         1 U61       0.062700
     50 H16        -50.2500    23.6020    41.4150 ho         1 U61       0.516000
     51 H17        -49.7340    25.2280    37.7010 h1         1 U61       0.110700
     52 H18        -50.2220    27.0780    41.0820 h4         1 U61       0.175000
     53 H19        -49.6960    28.5810    42.7570 ha         1 U61       0.119500
     54 H20        -49.1020    30.1880    44.5390 ha         1 U61       0.113500
     55 H21        -46.9170    31.3840    44.4810 ha         1 U61       0.114000
     56 H22        -45.3190    30.9580    42.6160 ha         1 U61       0.113500
     57 H23        -45.8920    29.3550    40.8220 ha         1 U61       0.119500
@<TRIPOS>BOND
     1     1     2 ar  
     2     1     7 ar  
     3     1    35 1   
     4     2     3 ar  
     5     2    36 1   
     6     3     4 1   
     7     3     5 ar  
     8     5     6 ar  
     9     5    37 1   
    10     6     7 ar  
    11     6    38 1   
    12     7     8 1   
    13     8     9 2   
    14     8    10 1   
    15     9    12 1   
    16     9    39 1   
    17    10    11 2   
    18    11    12 1   
    19    12    13 1   
    20    13    14 1   
    21    13    40 1   
    22    13    41 1   
    23    14    15 1   
    24    14    17 1   
    25    14    42 1   
    26    15    16 1   
    27    15    23 1   
    28    15    43 1   
    29    16    44 1   
    30    17    18 1   
    31    18    19 1   
    32    18    21 1   
    33    18    45 1   
    34    19    20 1   
    35    19    46 1   
    36    19    47 1   
    37    20    48 1   
    38    21    22 1   
    39    21    23 1   
    40    21    49 1   
    41    22    50 1   
    42    23    24 1   
    43    23    51 1   
    44    24    25 1   
    45    24    26 1   
    46    25    28 2   
    47    25    52 1   
    48    26    27 2   
    49    27    28 1   
    50    28    29 1   
    51    29    30 ar  
    52    29    34 ar  
    53    30    31 ar  
    54    30    53 1   
    55    31    32 ar  
    56    31    54 1   
    57    32    33 ar  
    58    32    55 1   
    59    33    34 ar  
    60    33    56 1   
    61    34    57 1   
@<TRIPOS>SUBSTRUCTURE
     1 U61         1 TEMP              0 ****  ****    0 ROOT
