@<TRIPOS>MOLECULE
U62
   23    25     1     0     0
SMALL
bcc


@<TRIPOS>ATOM
      1 C10          0.0320    -7.0420     5.9900 ca         1 U62      -0.165000
      2 C13          0.9640    -4.8770     4.5180 ca         1 U62      -0.106000
      3 C15          3.2340    -5.2260     5.5620 cc         1 U62      -0.098100
      4 C04          5.5280    -4.3330     5.7740 cc         1 U62      -0.062700
      5 C05          5.3930    -5.5710     6.3350 cd         1 U62      -0.162000
      6 C06          4.0800    -6.0820     6.2110 cd         1 U62      -0.150300
      7 C07          3.5510    -7.4100     6.6450 c6         1 U62       0.215700
      8 C09          1.3630    -6.6620     6.0850 ca         1 U62       0.131100
      9 C11         -0.8290    -6.3370     5.1600 ca         1 U62      -0.127000
     10 C12         -0.3650    -5.2570     4.4190 ca         1 U62      -0.161000
     11 C14          1.8430    -5.5650     5.3510 ca         1 U62      -0.024000
     12 O01          6.5450    -2.3630     5.0780 o          1 U62      -0.810800
     13 O03          7.7800    -3.8650     6.1970 o          1 U62      -0.810800
     14 O08          2.1610    -7.3350     6.9470 os         1 U62      -0.335900
     15 S16          4.0410    -3.7800     5.1000 ss         1 U62      -0.029800
     16 H1          -0.3250    -7.8850     6.5680 ha         1 U62       0.130000
     17 H2           1.3280    -4.0330     3.9430 ha         1 U62       0.135000
     18 H3           6.2080    -6.0930     6.8170 ha         1 U62       0.157000
     19 H4           3.7180    -8.1660     5.8670 h1         1 U62       0.047200
     20 H5           4.0400    -7.7600     7.5530 h1         1 U62       0.047200
     21 H6          -1.8640    -6.6420     5.0880 ha         1 U62       0.115000
     22 H7          -1.0360    -4.7130     3.7680 ha         1 U62       0.119000
     23 C02          6.7350    -3.4390     5.6770 c          1 U62       0.944200
@<TRIPOS>BOND
     1     1     8 ar  
     2     1     9 ar  
     3     1    16 1   
     4     2    10 ar  
     5     2    11 ar  
     6     2    17 1   
     7     3     6 2   
     8     3    11 1   
     9     3    15 1   
    10     4     5 2   
    11     4    15 1   
    12     4    23 1   
    13     5     6 1   
    14     5    18 1   
    15     6     7 1   
    16     7    14 1   
    17     7    19 1   
    18     7    20 1   
    19     8    11 ar  
    20     8    14 1   
    21     9    10 ar  
    22     9    21 1   
    23    10    22 1   
    24    12    23 1   
    25    13    23 1   
@<TRIPOS>SUBSTRUCTURE
     1 U62         1 TEMP              0 ****  ****    0 ROOT
