@<TRIPOS>MOLECULE
U62
   23    25     1     0     0
SMALL
No Charge or Current Charge


@<TRIPOS>ATOM
      1 C10         -0.0110    -7.0770     5.9830 ca         1 U62      -0.147000
      2 C13          0.9440    -4.8670     4.5250 ca         1 U62      -0.088000
      3 C15          3.2230    -5.2040     5.5060 cc         1 U62      -0.243000
      4 C04          5.5180    -4.2760     5.7290 cc         1 U62      -0.207600
      5 C05          5.3740    -5.5250     6.3040 cd         1 U62      -0.144000
      6 C06          4.0570    -6.0510     6.1800 cd         1 U62      -0.150300
      7 C07          3.6080    -7.4100     6.6870 c6         1 U62       0.238900
      8 C09          1.3420    -6.7110     6.0720 ca         1 U62       0.131100
      9 C11         -0.8850    -6.3510     5.1550 ca         1 U62      -0.109000
     10 C12         -0.4060    -5.2500     4.4250 ca         1 U62      -0.143000
     11 C14          1.8260    -5.5940     5.3500 ca         1 U62      -0.024000
     12 O01          6.7510    -2.3880     5.1540 o          1 U62      -0.705500
     13 O03          7.7700    -3.9430     6.2250 o          1 U62      -0.705500
     14 O08          2.1750    -7.4300     6.9120 os         1 U62      -0.359100
     15 S16          4.0130    -3.7130     5.0040 ss         1 U62       0.260000
     16 H1          -0.3810    -7.9260     6.5520 ha         1 U62       0.112000
     17 H2           1.2990    -4.0070     3.9630 ha         1 U62       0.117000
     18 H3           6.1840    -6.0530     6.7990 ha         1 U62       0.139000
     19 H4           3.8520    -8.1770     5.9390 h1         1 U62       0.047200
     20 H5           4.1200    -7.6740     7.6220 h1         1 U62       0.047200
     21 H6          -1.9310    -6.6400     5.0820 ha         1 U62       0.097000
     22 H7          -1.0830    -4.6870     3.7870 ha         1 U62       0.101000
     23 C02          6.7660    -3.4810     5.7010 c          1 U62       0.733600
@<TRIPOS>BOND
     1     1     8 ar  
     2     1     9 ar  
     3     1    16 1   
     4     2    10 ar  
     5     2    11 ar  
     6     2    17 1   
     7     3     6 2   
     8     3    11 1   
     9     3    15 1   
    10     4     5 2   
    11     4    15 1   
    12     4    23 1   
    13     5     6 1   
    14     5    18 1   
    15     6     7 1   
    16     7    14 1   
    17     7    19 1   
    18     7    20 1   
    19     8    11 ar  
    20     8    14 1   
    21     9    10 ar  
    22     9    21 1   
    23    10    22 1   
    24    12    23 1   
    25    13    23 1   
@<TRIPOS>SUBSTRUCTURE
     1 U62         1 TEMP              0 ****  ****    0 ROOT
