@<TRIPOS>MOLECULE
U64
   58    62     1     0     0
SMALL
No Charge or Current Charge


@<TRIPOS>ATOM
      1 C1          70.9610    48.0310     7.0000 ca         1 U64      -0.074800
      2 C7          71.1660    47.3720     5.6750 ce         1 U64      -0.141200
      3 C15         72.2470    47.4000     4.8360 cf         1 U64       0.027700
      4 F2          73.3040    48.1520     5.2330 f          1 U64      -0.178500
      5 C16         72.3690    46.7130     3.5210 ca         1 U64       0.400800
      6 C20         73.5450    46.8290     2.7480 ca         1 U64      -0.142000
      7 C19         73.6360    46.1700     1.5100 ca         1 U64      -0.035000
      8 C18         72.5370    45.4090     1.0800 ca         1 U64      -0.070000
      9 C25         72.5600    44.7130    -0.1710 cg         1 U64       0.323000
     10 N5          72.5890    44.1480    -1.1920 n1         1 U64      -0.436000
     11 C17         71.4000    45.3400     1.9010 ca         1 U64       0.386900
     12 N4          71.3110    45.9740     3.0950 nb         1 U64      -0.672000
     13 C6          69.6720    48.4830     7.3470 ca         1 U64      -0.049000
     14 C5          69.4140    49.1050     8.5970 ca         1 U64      -0.127300
     15 C8          67.9880    49.6140     8.9840 c6         1 U64       0.264500
     16 C12         68.0480    51.1690     9.0990 c3         1 U64      -0.072100
     17 N1          67.0110    49.4160     7.8810 n2         1 U64      -0.708900
     18 C11         66.3600    48.3390     7.7010 c2         1 U64       0.689100
     19 N2          65.5810    48.1600     6.6180 nv         1 U64      -1.022200
     20 S1          66.2200    46.9730     8.8200 ss         1 U64      -0.291200
     21 C10         66.5840    47.8080    10.4110 cx         1 U64      -0.112000
     22 C14         68.0130    47.7260    10.8850 cx         1 U64      -0.050400
     23 C13         65.4730    47.6970    11.4560 c          1 U64       0.652100
     24 O1          65.5350    46.8710    12.3590 o          1 U64      -0.586100
     25 N3          64.3750    48.5900    11.3480 n          1 U64      -0.403800
     26 C21         64.1500    49.4460    10.1340 c6         1 U64       0.060500
     27 C22         63.0620    50.5390    10.2820 c6         1 U64       0.136600
     28 O2          61.8930    50.0120    10.9310 os         1 U64      -0.443000
     29 C23         62.1730    49.5690    12.2690 c6         1 U64       0.136600
     30 C24         63.1940    48.4040    12.2550 c6         1 U64       0.060500
     31 C9          67.4730    49.0380    10.3430 cx         1 U64      -0.117700
     32 C4          70.5050    49.2570     9.4910 ca         1 U64       0.188000
     33 F1          70.3420    49.8300    10.7050 f          1 U64      -0.177000
     34 C3          71.7850    48.7960     9.1540 ca         1 U64      -0.163000
     35 C2          72.0160    48.1810     7.9160 ca         1 U64      -0.056000
     36 H1          70.2970    46.8040     5.3410 ha         1 U64       0.212000
     37 H2          74.3820    47.4230     3.1040 ha         1 U64       0.145000
     38 H3          74.5380    46.2510     0.9050 ha         1 U64       0.135000
     39 H4          70.5290    44.7600     1.5990 h4         1 U64       0.034100
     40 H5          68.8800    48.3510     6.6170 ha         1 U64       0.133000
     41 H6          68.6890    51.5050     9.9200 hc         1 U64       0.047033
     42 H7          68.4360    51.6200     8.1780 hc         1 U64       0.047033
     43 H8          67.0530    51.5960     9.2800 hc         1 U64       0.047033
     44 H9          65.3540    49.0370     6.1680 hn         1 U64       0.482500
     45 H10         64.8000    47.5360     6.7700 hn         1 U64       0.482500
     46 H11         68.1990    47.6680    11.9550 hc         1 U64       0.098200
     47 H12         68.6990    47.1380    10.2820 hc         1 U64       0.098200
     48 H13         63.8680    48.7920     9.2980 h1         1 U64       0.063950
     49 H14         65.0790    49.9530     9.8510 h1         1 U64       0.063950
     50 H15         63.4540    51.3780    10.8750 h1         1 U64       0.054450
     51 H16         62.7840    50.9270     9.2920 h1         1 U64       0.054450
     52 H17         62.5750    50.4120    12.8510 h1         1 U64       0.054450
     53 H18         61.2390    49.2420    12.7470 h1         1 U64       0.054450
     54 H19         62.6690    47.4870    11.9520 h1         1 U64       0.063950
     55 H20         63.5450    48.2440    13.2840 h1         1 U64       0.063950
     56 H21         67.2790    49.8090    11.0860 hc         1 U64       0.098700
     57 H22         72.6020    48.9120     9.8630 ha         1 U64       0.135000
     58 H23         73.0120    47.8130     7.6820 ha         1 U64       0.132000
@<TRIPOS>BOND
     1     1     2 1   
     2     1    13 ar  
     3     1    35 ar  
     4     2     3 2   
     5     2    36 1   
     6     3     4 1   
     7     3     5 1   
     8     5     6 ar  
     9     5    12 ar  
    10     6     7 ar  
    11     6    37 1   
    12     7     8 ar  
    13     7    38 1   
    14     8     9 1   
    15     8    11 ar  
    16     9    10 3   
    17    11    12 ar  
    18    11    39 1   
    19    13    14 ar  
    20    13    40 1   
    21    14    15 1   
    22    14    32 ar  
    23    15    16 1   
    24    15    17 1   
    25    15    31 1   
    26    16    41 1   
    27    16    42 1   
    28    16    43 1   
    29    17    18 2   
    30    18    19 1   
    31    18    20 1   
    32    19    44 1   
    33    19    45 1   
    34    20    21 1   
    35    21    22 1   
    36    21    23 1   
    37    21    31 1   
    38    22    31 1   
    39    22    46 1   
    40    22    47 1   
    41    23    24 2   
    42    23    25 1   
    43    25    26 1   
    44    25    30 1   
    45    26    27 1   
    46    26    48 1   
    47    26    49 1   
    48    27    28 1   
    49    27    50 1   
    50    27    51 1   
    51    28    29 1   
    52    29    30 1   
    53    29    52 1   
    54    29    53 1   
    55    30    54 1   
    56    30    55 1   
    57    31    56 1   
    58    32    33 1   
    59    32    34 ar  
    60    34    35 ar  
    61    34    57 1   
    62    35    58 1   
@<TRIPOS>SUBSTRUCTURE
     1 U64         1 TEMP              0 ****  ****    0 ROOT
