@<TRIPOS>MOLECULE
U64
   58    62     1     0     0
SMALL
bcc


@<TRIPOS>ATOM
      1 C1          70.9450    48.2440     6.9910 ca         1 U64      -0.074800
      2 C7          71.1290    47.6450     5.6770 ce         1 U64      -0.091200
      3 C15         72.2440    47.2510     5.0580 cf         1 U64       0.027700
      4 F2          73.4490    47.3700     5.6410 f          1 U64      -0.178500
      5 C16         72.3140    46.6670     3.7190 ca         1 U64       0.466100
      6 C20         73.5380    46.3130     3.1490 ca         1 U64      -0.225300
      7 C19         73.5440    45.7700     1.8800 ca         1 U64      -0.053000
      8 C18         72.3310    45.5960     1.2200 ca         1 U64      -0.135300
      9 C25         72.2730    45.0420    -0.0890 cg         1 U64       0.233800
     10 N5          72.2160    44.5930    -1.1490 n1         1 U64      -0.346800
     11 C17         71.1570    45.9800     1.8730 ca         1 U64       0.452200
     12 N4          71.1540    46.4970     3.0800 nb         1 U64      -0.672000
     13 C6          69.6370    48.6090     7.3350 ca         1 U64      -0.067000
     14 C5          69.3050    49.1990     8.5460 ca         1 U64      -0.127300
     15 C8          67.8740    49.6240     8.8800 c6         1 U64       0.264500
     16 C12         67.8180    51.1590     8.9280 c3         1 U64      -0.072100
     17 N1          66.9890    49.2520     7.7950 n2         1 U64      -0.708900
     18 C11         66.4020    48.1330     7.7090 c2         1 U64       0.689100
     19 N2          65.7630    47.7400     6.5820 nv         1 U64      -0.911800
     20 S1          66.3900    46.8470     8.9420 ss         1 U64      -0.243300
     21 C10         66.6410    47.8300    10.4090 cx         1 U64      -0.159900
     22 C14         68.0270    47.9080    10.9470 cx         1 U64      -0.050400
     23 C13         65.5010    47.7160    11.4000 c          1 U64       0.719100
     24 O1          65.6470    47.0210    12.3940 o          1 U64      -0.586100
     25 N3          64.3570    48.3710    11.1280 n          1 U64      -0.470800
     26 C21         64.1060    49.2070     9.9690 c6         1 U64       0.060500
     27 C22         63.4870    50.5240    10.4110 c6         1 U64       0.113400
     28 O2          62.3300    50.3270    11.1870 os         1 U64      -0.396600
     29 C23         62.6130    49.5620    12.3370 c6         1 U64       0.113400
     30 C24         63.1840    48.2030    11.9730 c6         1 U64       0.060500
     31 C9          67.4430    49.0950    10.2600 cx         1 U64      -0.117700
     32 C4          70.3610    49.4250     9.4220 ca         1 U64       0.152900
     33 F1          70.1240    50.0030    10.6090 f          1 U64      -0.141900
     34 C3          71.6650    49.0720     9.1350 ca         1 U64      -0.181000
     35 C2          71.9630    48.4810     7.9200 ca         1 U64      -0.074000
     36 H1          70.2260    47.5010     5.0970 ha         1 U64       0.162000
     37 H2          74.4710    46.4550     3.6740 ha         1 U64       0.163000
     38 H3          74.4750    45.4880     1.4090 ha         1 U64       0.153000
     39 H4          70.1960    45.8570     1.3870 h4         1 U64       0.034100
     40 H5          68.8520    48.4310     6.6130 ha         1 U64       0.151000
     41 H6          68.4570    51.5730     9.7040 hc         1 U64       0.047033
     42 H7          68.1200    51.5760     7.9670 hc         1 U64       0.047033
     43 H8          66.7940    51.4820     9.1290 hc         1 U64       0.047033
     44 H9          65.7010    48.4210     5.8410 hn         1 U64       0.427300
     45 H10         64.9770    47.1150     6.6580 hn         1 U64       0.427300
     46 H11         68.1450    47.9580    12.0210 hc         1 U64       0.098200
     47 H12         68.7860    47.3240    10.4400 hc         1 U64       0.098200
     48 H13         63.4350    48.6850     9.2790 h1         1 U64       0.063950
     49 H14         65.0240    49.4260     9.4360 h1         1 U64       0.063950
     50 H15         64.2370    51.1010    10.9740 h1         1 U64       0.054450
     51 H16         63.2020    51.1050     9.5340 h1         1 U64       0.054450
     52 H17         63.3210    50.0910    12.9900 h1         1 U64       0.054450
     53 H18         61.6790    49.4330    12.8850 h1         1 U64       0.054450
     54 H19         62.4360    47.6150    11.4310 h1         1 U64       0.063950
     55 H20         63.4510    47.6590    12.8740 h1         1 U64       0.063950
     56 H21         67.1160    49.8860    10.9280 hc         1 U64       0.098700
     57 H22         72.4440    49.2620     9.8610 ha         1 U64       0.153000
     58 H23         72.9890    48.2150     7.7200 ha         1 U64       0.150000
@<TRIPOS>BOND
     1     1     2 1   
     2     1    13 ar  
     3     1    35 ar  
     4     2     3 2   
     5     2    36 1   
     6     3     4 1   
     7     3     5 1   
     8     5     6 ar  
     9     5    12 ar  
    10     6     7 ar  
    11     6    37 1   
    12     7     8 ar  
    13     7    38 1   
    14     8     9 1   
    15     8    11 ar  
    16     9    10 3   
    17    11    12 ar  
    18    11    39 1   
    19    13    14 ar  
    20    13    40 1   
    21    14    15 1   
    22    14    32 ar  
    23    15    16 1   
    24    15    17 1   
    25    15    31 1   
    26    16    41 1   
    27    16    42 1   
    28    16    43 1   
    29    17    18 2   
    30    18    19 1   
    31    18    20 1   
    32    19    44 1   
    33    19    45 1   
    34    20    21 1   
    35    21    22 1   
    36    21    23 1   
    37    21    31 1   
    38    22    31 1   
    39    22    46 1   
    40    22    47 1   
    41    23    24 2   
    42    23    25 1   
    43    25    26 1   
    44    25    30 1   
    45    26    27 1   
    46    26    48 1   
    47    26    49 1   
    48    27    28 1   
    49    27    50 1   
    50    27    51 1   
    51    28    29 1   
    52    29    30 1   
    53    29    52 1   
    54    29    53 1   
    55    30    54 1   
    56    30    55 1   
    57    31    56 1   
    58    32    33 1   
    59    32    34 ar  
    60    34    35 ar  
    61    34    57 1   
    62    35    58 1   
@<TRIPOS>SUBSTRUCTURE
     1 U64         1 TEMP              0 ****  ****    0 ROOT
