@<TRIPOS>MOLECULE
U65
   27    29     1     0     0
SMALL
No Charge or Current Charge


@<TRIPOS>ATOM
      1 C01          8.3900    -3.9420     6.4210 c3         1 U65       0.151900
      2 C03          6.1190    -3.9070     5.6070 c          1 U65       0.637700
      3 C05          4.7990    -4.5510     5.6710 cc         1 U65      -0.308600
      4 C06          4.4750    -5.6450     6.4470 cd         1 U65      -0.033000
      5 C07          3.1170    -6.0440     6.2980 cd         1 U65      -0.181300
      6 C08          2.4620    -7.1920     7.0390 c6         1 U65       0.238900
      7 C10          0.5240    -6.8100     5.5950 ca         1 U65       0.154100
      8 C11         -0.7950    -7.1810     5.2890 ca         1 U65      -0.140000
      9 C12         -1.6190    -6.3120     4.5530 ca         1 U65      -0.070000
     10 C13         -1.1160    -5.0760     4.1120 ca         1 U65      -0.139000
     11 C14          0.2110    -4.7080     4.4000 ca         1 U65      -0.063000
     12 C15          1.0400    -5.5740     5.1410 ca         1 U65      -0.090000
     13 C16          2.4320    -5.2450     5.4260 cc         1 U65      -0.143000
     14 O02          7.0610    -4.4970     6.4100 os         1 U65      -0.430100
     15 O04          6.3500    -2.9350     4.9020 o          1 U65      -0.493000
     16 O09          1.3200    -7.6930     6.3010 os         1 U65      -0.342100
     17 S17          3.4280    -3.9700     4.7320 ss         1 U65       0.348000
     18 H1           9.0350    -4.5090     7.1030 h1         1 U65       0.050033
     19 H2           8.8380    -3.9790     5.4190 h1         1 U65       0.050033
     20 H3           8.3750    -2.8970     6.7580 h1         1 U65       0.050033
     21 H4           5.1780    -6.1520     7.1050 ha         1 U65       0.148000
     22 H5           3.1710    -8.0150     7.2050 h1         1 U65       0.062200
     23 H6          -1.1790    -8.1400     5.6280 ha         1 U65       0.130000
     24 H7          -2.6430    -6.5970     4.3230 ha         1 U65       0.117000
     25 H8          -1.7520    -4.4040     3.5410 ha         1 U65       0.119000
     26 H9           0.5890    -3.7530     4.0430 ha         1 U65       0.116000
     27 H12          2.1140    -6.8420     8.0210 h1         1 U65       0.062200
@<TRIPOS>BOND
     1     1    14 1   
     2     1    18 1   
     3     1    19 1   
     4     1    20 1   
     5     2     3 1   
     6     2    14 1   
     7     2    15 2   
     8     3     4 2   
     9     3    17 1   
    10     4     5 1   
    11     4    21 1   
    12     5     6 1   
    13     5    13 2   
    14     6    16 1   
    15     6    22 1   
    16     6    27 1   
    17     7     8 ar  
    18     7    12 ar  
    19     7    16 1   
    20     8     9 ar  
    21     8    23 1   
    22     9    10 ar  
    23     9    24 1   
    24    10    11 ar  
    25    10    25 1   
    26    11    12 ar  
    27    11    26 1   
    28    12    13 1   
    29    13    17 1   
@<TRIPOS>SUBSTRUCTURE
     1 U65         1 TEMP              0 ****  ****    0 ROOT
