@<TRIPOS>MOLECULE
U65
   27    29     1     0     0
SMALL
abcg2


@<TRIPOS>ATOM
      1 C01          8.3390    -3.8880     6.3010 c3         1 U65       0.151900
      2 C03          6.0850    -3.9300     5.6330 c          1 U65       0.637700
      3 C05          4.8130    -4.6360     5.7680 cc         1 U65      -0.308600
      4 C06          4.4840    -5.7170     6.5430 cd         1 U65      -0.033000
      5 C07          3.1370    -6.0920     6.3790 cd         1 U65      -0.181300
      6 C08          2.3760    -7.1770     7.0670 c6         1 U65       0.238900
      7 C10          0.5770    -6.7940     5.5650 ca         1 U65       0.154100
      8 C11         -0.7220    -7.1600     5.2420 ca         1 U65      -0.140000
      9 C12         -1.5240    -6.2880     4.5210 ca         1 U65      -0.070000
     10 C13         -1.0400    -5.0480     4.1200 ca         1 U65      -0.139000
     11 C14          0.2590    -4.6860     4.4340 ca         1 U65      -0.063000
     12 C15          1.0830    -5.5510     5.1510 ca         1 U65      -0.090000
     13 C16          2.4690    -5.2990     5.4820 cc         1 U65      -0.143000
     14 O02          7.0430    -4.4860     6.3550 os         1 U65      -0.430100
     15 O04          6.2280    -2.9550     4.9340 o          1 U65      -0.493000
     16 O09          1.3480    -7.6860     6.2240 os         1 U65      -0.342100
     17 S17          3.4800    -4.0850     4.8250 ss         1 U65       0.348000
     18 H1           8.9660    -4.4810     6.9600 h1         1 U65       0.050033
     19 H2           8.7460    -3.9160     5.2910 h1         1 U65       0.050033
     20 H3           8.3180    -2.8570     6.6530 h1         1 U65       0.050033
     21 H4           5.1760    -6.2160     7.2060 ha         1 U65       0.148000
     22 H5           3.0170    -8.0230     7.3140 h1         1 U65       0.062200
     23 H6          -1.0990    -8.1260     5.5560 ha         1 U65       0.130000
     24 H7          -2.5380    -6.5780     4.2780 ha         1 U65       0.117000
     25 H8          -1.6710    -4.3690     3.5640 ha         1 U65       0.119000
     26 H9           0.6390    -3.7210     4.1200 ha         1 U65       0.116000
     27 H12          1.9350    -6.8070     8.0010 h1         1 U65       0.062200
@<TRIPOS>BOND
     1     1    14 1   
     2     1    18 1   
     3     1    19 1   
     4     1    20 1   
     5     2     3 1   
     6     2    14 1   
     7     2    15 2   
     8     3     4 2   
     9     3    17 1   
    10     4     5 1   
    11     4    21 1   
    12     5     6 1   
    13     5    13 2   
    14     6    16 1   
    15     6    22 1   
    16     6    27 1   
    17     7     8 ar  
    18     7    12 ar  
    19     7    16 1   
    20     8     9 ar  
    21     8    23 1   
    22     9    10 ar  
    23     9    24 1   
    24    10    11 ar  
    25    10    25 1   
    26    11    12 ar  
    27    11    26 1   
    28    12    13 1   
    29    13    17 1   
@<TRIPOS>SUBSTRUCTURE
     1 U65         1 TEMP              0 ****  ****    0 ROOT
