@<TRIPOS>MOLECULE
U66
   61    66     1     0     0
SMALL
No Charge or Current Charge


@<TRIPOS>ATOM
      1 C           -0.7820    -0.5370    -3.9020 ca         1 U66       0.001000
      2 C1          -0.5480     0.7860    -3.4350 ca         1 U66      -0.039000
      3 C2          -0.0600    -1.6140    -3.3290 ca         1 U66      -0.056000
      4 C3          -1.7010    -0.8120    -4.9440 ca         1 U66      -0.173000
      5 N           -1.1250     1.9370    -4.0710 n          1 U66      -0.251400
      6 C4           0.4710     1.0080    -2.4870 ca         1 U66      -0.088000
      7 C5          -0.2680    -2.9290    -3.7800 ca         1 U66      -0.073000
      8 C6           0.8940    -1.3760    -2.3240 ca         1 U66      -0.083000
      9 C7          -1.9110    -2.1350    -5.3900 ca         1 U66       0.133100
     10 C8          -0.3940     2.8050    -4.8910 c          1 U66       0.568000
     11 C9          -2.5520     2.3040    -3.9290 c5         1 U66       0.119000
     12 C10          1.1680    -0.0640    -1.9130 ca         1 U66      -0.112000
     13 C11         -1.1860    -3.1850    -4.8090 ca         1 U66      -0.122000
     14 O           -2.8190    -2.4670    -6.3780 os         1 U66      -0.353100
     15 C12         -1.4310     3.8220    -5.4570 c5         1 U66       0.086500
     16 O13          0.8120     2.7350    -5.1110 o          1 U66      -0.526000
     17 C14         -2.5500     3.7990    -4.3790 c5         1 U66      -0.093400
     18 C15         -3.9370    -1.6110    -6.7090 c6         1 U66       0.189300
     19 N16         -2.0880     3.4290    -6.7570 n7         1 U66      -0.873400
     20 C17         -5.1360    -2.5020    -7.1280 c6         1 U66      -0.005600
     21 C18         -3.5620    -0.5870    -7.8260 c6         1 U66      -0.064200
     22 C19         -1.2150     2.8110    -7.7820 c3         1 U66       0.153800
     23 C20         -4.8230    -3.2420    -8.4560 c6         1 U66      -0.031200
     24 C21         -6.3860    -1.7170    -7.2130 c1         1 U66       0.300900
     25 C22         -3.7690    -1.0890    -9.2630 c2         1 U66      -0.135400
     26 C23         -2.0220     2.4450    -9.0450 c3         1 U66      -0.009100
     27 C24         -4.3180    -2.2890    -9.5300 c2         1 U66      -0.188200
     28 N25         -7.3750    -1.1000    -7.2470 n1         1 U66      -0.458000
     29 C26         -3.4060    -0.0990   -10.3630 c3         1 U66       0.113800
     30 C27         -1.3560     1.3620    -9.8660 cc         1 U66      -0.205300
     31 N28         -1.9740     0.2460   -10.4070 na         1 U66      -0.165500
     32 C29         -0.0310     1.2390   -10.2100 cd         1 U66       0.241900
     33 C30         -0.9990    -0.4970   -11.0390 cc         1 U66       0.396400
     34 NZ           0.1850     0.0880   -10.9370 nd         1 U66      -0.669000
     35 H31         -2.2320     0.0010    -5.4180 ha         1 U66       0.135000
     36 H41          0.7100     2.0240    -2.1790 ha         1 U66       0.120000
     37 H51          0.2890    -3.7550    -3.3420 ha         1 U66       0.118000
     38 H61          1.4480    -2.2020    -1.8840 ha         1 U66       0.115000
     39 H91         -2.9060     2.1850    -2.8970 h1         1 U66       0.050200
     40 H92         -3.1910     1.7020    -4.5860 h1         1 U66       0.050200
     41 H101         1.9310     0.1220    -1.1600 ha         1 U66       0.118000
     42 H111        -1.3440    -4.2030    -5.1530 ha         1 U66       0.126000
     43 H121        -0.9490     4.8060    -5.5350 h1         1 U66       0.061700
     44 H141        -3.5270     4.1370    -4.7420 hc         1 U66       0.059700
     45 H142        -2.2780     4.4460    -3.5370 hc         1 U66       0.059700
     46 H151        -4.2250    -1.0660    -5.7980 h1         1 U66       0.061700
     47 H161        -2.5670     4.2420    -7.1650 hn         1 U66       0.411000
     48 H117        -5.3140    -3.2460    -6.3410 hc         1 U66       0.088700
     49 H181        -2.5180    -0.2770    -7.6970 hc         1 U66       0.073200
     50 H182        -4.1660     0.3190    -7.6810 hc         1 U66       0.073200
     51 H191        -0.7730     1.8870    -7.3840 h1         1 U66       0.057200
     52 H192        -0.3890     3.4800    -8.0620 h1         1 U66       0.057200
     53 H201        -5.7190    -3.7690    -8.8150 hc         1 U66       0.068700
     54 H202        -4.0650    -4.0190    -8.2840 hc         1 U66       0.068700
     55 H231        -3.0230     2.1260    -8.7370 hc         1 U66       0.050200
     56 H232        -2.1630     3.3450    -9.6550 hc         1 U66       0.050200
     57 H241        -4.4790    -2.6100   -10.5610 ha         1 U66       0.177000
     58 H261        -3.6800    -0.5190   -11.3400 h1         1 U66       0.064200
     59 H262        -3.9970     0.8170   -10.2450 h1         1 U66       0.064200
     60 H291         0.7810     1.9150    -9.9660 h4         1 U66       0.039100
     61 H301        -1.2180    -1.4280   -11.5480 h5         1 U66       0.052100
@<TRIPOS>BOND
     1     1     2 ar  
     2     1     3 ar  
     3     1     4 ar  
     4     2     5 1   
     5     2     6 ar  
     6     3     7 ar  
     7     3     8 ar  
     8     4     9 ar  
     9     4    35 1   
    10     5    10 1   
    11     5    11 1   
    12     6    12 ar  
    13     6    36 1   
    14     7    13 ar  
    15     7    37 1   
    16     8    12 ar  
    17     8    38 1   
    18     9    13 ar  
    19     9    14 1   
    20    10    15 1   
    21    10    16 2   
    22    11    17 1   
    23    11    39 1   
    24    11    40 1   
    25    12    41 1   
    26    13    42 1   
    27    14    18 1   
    28    15    17 1   
    29    15    19 1   
    30    15    43 1   
    31    17    44 1   
    32    17    45 1   
    33    18    20 1   
    34    18    21 1   
    35    18    46 1   
    36    19    22 1   
    37    19    47 1   
    38    20    23 1   
    39    20    24 1   
    40    20    48 1   
    41    21    25 1   
    42    21    49 1   
    43    21    50 1   
    44    22    26 1   
    45    22    51 1   
    46    22    52 1   
    47    23    27 1   
    48    23    53 1   
    49    23    54 1   
    50    24    28 3   
    51    25    27 2   
    52    25    29 1   
    53    26    30 1   
    54    26    55 1   
    55    26    56 1   
    56    27    57 1   
    57    29    31 1   
    58    29    58 1   
    59    29    59 1   
    60    30    31 1   
    61    30    32 2   
    62    31    33 1   
    63    32    34 1   
    64    32    60 1   
    65    33    34 2   
    66    33    61 1   
@<TRIPOS>SUBSTRUCTURE
     1 U66         1 TEMP              0 ****  ****    0 ROOT
