@<TRIPOS>MOLECULE
U66
   61    66     1     0     0
SMALL
abcg2


@<TRIPOS>ATOM
      1 C           -0.7800    -0.4930    -3.8590 ca         1 U66       0.001000
      2 C1          -0.5470     0.7980    -3.3130 ca         1 U66      -0.039000
      3 C2          -0.1740    -1.6070    -3.2240 ca         1 U66      -0.056000
      4 C3          -1.5890    -0.6930    -5.0030 ca         1 U66      -0.173000
      5 N           -1.0640     1.9340    -3.9730 n          1 U66      -0.251400
      6 C4           0.2050     0.9520    -2.1790 ca         1 U66      -0.088000
      7 C5          -0.3630    -2.8910    -3.7880 ca         1 U66      -0.073000
      8 C6           0.6000    -1.4150    -2.0590 ca         1 U66      -0.083000
      9 C7          -1.7860    -1.9600    -5.4910 ca         1 U66       0.133100
     10 C8          -0.4090     2.5110    -5.0050 c          1 U66       0.568000
     11 C9          -2.3540     2.5410    -3.6780 c5         1 U66       0.119000
     12 C10          0.7760    -0.1620    -1.5370 ca         1 U66      -0.112000
     13 C11         -1.1450    -3.0690    -4.8900 ca         1 U66      -0.122000
     14 O           -2.5800    -2.2510    -6.5460 os         1 U66      -0.353100
     15 C12         -1.3280     3.5790    -5.5900 c5         1 U66       0.086500
     16 O13          0.6980     2.1990    -5.3990 o          1 U66      -0.526000
     17 C14         -2.2570     3.8760    -4.4180 c5         1 U66      -0.093400
     18 C15         -3.7550    -1.4830    -6.7480 c6         1 U66       0.189300
     19 N16         -2.0790     2.9850    -6.6850 n7         1 U66      -0.873400
     20 C17         -4.8500    -2.5040    -7.0910 c6         1 U66      -0.005600
     21 C18         -3.5880    -0.4640    -7.8660 c6         1 U66      -0.064200
     22 C19         -1.2750     2.5230    -7.8040 c3         1 U66       0.153800
     23 C20         -4.5230    -3.2370    -8.3960 c6         1 U66      -0.031200
     24 C21         -6.1290    -1.8120    -7.2080 c1         1 U66       0.300900
     25 C22         -3.7490    -1.0250    -9.2500 c2         1 U66      -0.135400
     26 C23         -2.1330     2.3800    -9.0630 c3         1 U66      -0.009100
     27 C24         -4.1560    -2.2720    -9.4770 c2         1 U66      -0.188200
     28 N25         -7.1380    -1.2670    -7.2950 n1         1 U66      -0.458000
     29 C26         -3.5300    -0.0780   -10.3980 c3         1 U66       0.113800
     30 C27         -1.5140     1.4380   -10.0390 cc         1 U66      -0.205300
     31 N28         -2.1510     0.3450   -10.5760 na         1 U66      -0.165500
     32 C29         -0.2440     1.3850   -10.5470 cd         1 U66       0.241900
     33 C30         -1.2530    -0.2950   -11.3600 cc         1 U66       0.396400
     34 NZ          -0.0930     0.3040   -11.3670 nd         1 U66      -0.669000
     35 H31         -2.0480     0.1670    -5.4780 ha         1 U66       0.135000
     36 H41          0.3660     1.9460    -1.7820 ha         1 U66       0.120000
     37 H51          0.1110    -3.7450    -3.3200 ha         1 U66       0.118000
     38 H61          1.0520    -2.2760    -1.5820 ha         1 U66       0.115000
     39 H91         -2.4820     2.6650    -2.6030 h1         1 U66       0.050200
     40 H92         -3.1750     1.9240    -4.0500 h1         1 U66       0.050200
     41 H101         1.3660    -0.0190    -0.6420 ha         1 U66       0.118000
     42 H111        -1.3000    -4.0560    -5.3060 ha         1 U66       0.126000
     43 H121        -0.7370     4.4520    -5.8980 h1         1 U66       0.061700
     44 H141        -3.2300     4.2530    -4.7310 hc         1 U66       0.059700
     45 H142        -1.7980     4.6240    -3.7700 hc         1 U66       0.059700
     46 H151        -4.0240    -0.9680    -5.8210 h1         1 U66       0.061700
     47 H161        -2.7480     3.6730    -7.0090 hn         1 U66       0.411000
     48 H117        -4.9500    -3.2180    -6.2690 hc         1 U66       0.088700
     49 H181        -2.6090     0.0120    -7.7630 hc         1 U66       0.073200
     50 H182        -4.3170     0.3400    -7.7170 hc         1 U66       0.073200
     51 H191        -0.8460     1.5500    -7.5540 h1         1 U66       0.057200
     52 H192        -0.4250     3.1860    -8.0210 h1         1 U66       0.057200
     53 H201        -5.3780    -3.8390    -8.7060 hc         1 U66       0.068700
     54 H202        -3.7110    -3.9450    -8.2110 hc         1 U66       0.068700
     55 H231        -3.1240     2.0270    -8.7740 hc         1 U66       0.050200
     56 H232        -2.2880     3.3620    -9.5180 hc         1 U66       0.050200
     57 H241        -4.2630    -2.6190   -10.4990 ha         1 U66       0.177000
     58 H261        -3.8500    -0.5430   -11.3300 h1         1 U66       0.064200
     59 H262        -4.1480     0.8140   -10.2750 h1         1 U66       0.064200
     60 H291         0.5650     2.0750   -10.3580 h4         1 U66       0.039100
     61 H301        -1.5110    -1.1900   -11.9080 h5         1 U66       0.052100
@<TRIPOS>BOND
     1     1     2 ar  
     2     1     3 ar  
     3     1     4 ar  
     4     2     5 1   
     5     2     6 ar  
     6     3     7 ar  
     7     3     8 ar  
     8     4     9 ar  
     9     4    35 1   
    10     5    10 1   
    11     5    11 1   
    12     6    12 ar  
    13     6    36 1   
    14     7    13 ar  
    15     7    37 1   
    16     8    12 ar  
    17     8    38 1   
    18     9    13 ar  
    19     9    14 1   
    20    10    15 1   
    21    10    16 2   
    22    11    17 1   
    23    11    39 1   
    24    11    40 1   
    25    12    41 1   
    26    13    42 1   
    27    14    18 1   
    28    15    17 1   
    29    15    19 1   
    30    15    43 1   
    31    17    44 1   
    32    17    45 1   
    33    18    20 1   
    34    18    21 1   
    35    18    46 1   
    36    19    22 1   
    37    19    47 1   
    38    20    23 1   
    39    20    24 1   
    40    20    48 1   
    41    21    25 1   
    42    21    49 1   
    43    21    50 1   
    44    22    26 1   
    45    22    51 1   
    46    22    52 1   
    47    23    27 1   
    48    23    53 1   
    49    23    54 1   
    50    24    28 3   
    51    25    27 2   
    52    25    29 1   
    53    26    30 1   
    54    26    55 1   
    55    26    56 1   
    56    27    57 1   
    57    29    31 1   
    58    29    58 1   
    59    29    59 1   
    60    30    31 1   
    61    30    32 2   
    62    31    33 1   
    63    32    34 1   
    64    32    60 1   
    65    33    34 2   
    66    33    61 1   
@<TRIPOS>SUBSTRUCTURE
     1 U66         1 TEMP              0 ****  ****    0 ROOT
