@<TRIPOS>MOLECULE
U67
   22    21     1     0     0
SMALL
bcc


@<TRIPOS>ATOM
      1 CAA         14.0590    20.7460     1.0720 c3         1 U67      -0.086600
      2 CAN         14.6770    19.4340     1.5440 c3         1 U67      -0.060700
      3 CAB         14.7320    19.3920     3.0690 c3         1 U67      -0.086600
      4 CAI         16.0740    19.2120     0.9600 c3         1 U67      -0.061400
      5 CAG         16.1590    19.1980    -0.5640 c3         1 U67      -0.069400
      6 CAH         15.2920    18.1500    -1.2490 c3         1 U67       0.148800
      7 NAK         15.6130    16.8090    -0.7830 n8         1 U67      -0.885800
      8 H1          13.0710    20.8970     1.5100 hc         1 U67       0.029533
      9 H2          14.6810    21.5960     1.3650 hc         1 U67       0.029533
     10 H3          13.9390    20.7810    -0.0120 hc         1 U67       0.029533
     11 H4          14.0340    18.6120     1.2110 hc         1 U67       0.052700
     12 H5          13.7390    19.5190     3.5060 hc         1 U67       0.029533
     13 H6          15.1340    18.4440     3.4300 hc         1 U67       0.029533
     14 H7          15.3680    20.1910     3.4570 hc         1 U67       0.029533
     15 H8          16.4700    18.2680     1.3470 hc         1 U67       0.040700
     16 H9          16.7380    19.9980     1.3380 hc         1 U67       0.040700
     17 H10         17.2030    19.0340    -0.8540 hc         1 U67       0.034700
     18 H11         15.8950    20.1800    -0.9680 hc         1 U67       0.034700
     19 H12         15.4020    18.2720    -2.3370 h1         1 U67       0.025700
     20 H13         14.2370    18.3420    -1.0330 h1         1 U67       0.025700
     21 H14         15.0230    16.1350    -1.2550 hn         1 U67       0.334300
     22 H16         16.5610    16.5810    -1.0560 hn         1 U67       0.334300
@<TRIPOS>BOND
     1     1     2 1   
     2     1     8 1   
     3     1     9 1   
     4     1    10 1   
     5     2     3 1   
     6     2     4 1   
     7     2    11 1   
     8     3    12 1   
     9     3    13 1   
    10     3    14 1   
    11     4     5 1   
    12     4    15 1   
    13     4    16 1   
    14     5     6 1   
    15     5    17 1   
    16     5    18 1   
    17     6     7 1   
    18     6    19 1   
    19     6    20 1   
    20     7    21 1   
    21     7    22 1   
@<TRIPOS>SUBSTRUCTURE
     1 U67         1 TEMP              0 ****  ****    0 ROOT
