@<TRIPOS>MOLECULE
U67
   22    21     1     0     0
SMALL
No Charge or Current Charge


@<TRIPOS>ATOM
      1 CAA         14.0490    20.8290     1.1080 c3         1 U67      -0.086600
      2 CAN         14.6630    19.4890     1.5820 c3         1 U67      -0.060700
      3 CAB         14.7060    19.4250     3.1260 c3         1 U67      -0.086600
      4 CAI         16.0710    19.2170     0.9780 c3         1 U67      -0.061400
      5 CAG         16.1540    19.1680    -0.5730 c3         1 U67      -0.069400
      6 CAH         15.2820    18.0890    -1.2600 c3         1 U67       0.148800
      7 NAK         15.6860    16.7170    -0.8950 n8         1 U67      -0.996200
      8 H1          13.0810    21.0040     1.5930 hc         1 U67       0.029533
      9 H2          14.7110    21.6690     1.3520 hc         1 U67       0.029533
     10 H3          13.8780    20.8250     0.0260 hc         1 U67       0.029533
     11 H4          13.9910    18.6860     1.2540 hc         1 U67       0.052700
     12 H5          13.7030    19.5580     3.5490 hc         1 U67       0.029533
     13 H6          15.0870    18.4530     3.4640 hc         1 U67       0.029533
     14 H7          15.3560    20.2090     3.5320 hc         1 U67       0.029533
     15 H8          16.4510    18.2690     1.3780 hc         1 U67       0.040700
     16 H9          16.7610    19.9920     1.3330 hc         1 U67       0.040700
     17 H10         17.2010    19.0080    -0.8600 hc         1 U67       0.034700
     18 H11         15.8830    20.1490    -0.9820 hc         1 U67       0.034700
     19 H12         15.3760    18.1950    -2.3490 h1         1 U67       0.025700
     20 H13         14.2250    18.2320    -0.9970 h1         1 U67       0.025700
     21 H14         15.1370    16.0490    -1.4490 hn         1 U67       0.389500
     22 H16         16.6500    16.5590    -1.2120 hn         1 U67       0.389500
@<TRIPOS>BOND
     1     1     2 1   
     2     1     8 1   
     3     1     9 1   
     4     1    10 1   
     5     2     3 1   
     6     2     4 1   
     7     2    11 1   
     8     3    12 1   
     9     3    13 1   
    10     3    14 1   
    11     4     5 1   
    12     4    15 1   
    13     4    16 1   
    14     5     6 1   
    15     5    17 1   
    16     5    18 1   
    17     6     7 1   
    18     6    19 1   
    19     6    20 1   
    20     7    21 1   
    21     7    22 1   
@<TRIPOS>SUBSTRUCTURE
     1 U67         1 TEMP              0 ****  ****    0 ROOT
