@<TRIPOS>MOLECULE
U69
   23    23     1     0     0
SMALL
abcg2


@<TRIPOS>ATOM
      1 C10          8.3750    17.0600    40.3960 c3         1 U69       0.277800
      2 C13          7.0570    18.7220    37.0820 c5         1 U69      -0.018700
      3 C15          5.8880    20.2780    38.4820 c5         1 U69      -0.078400
      4 C11          8.1300    17.3670    38.9380 c2         1 U69      -0.132200
      5 C12          7.3210    18.3350    38.5200 c2         1 U69      -0.258400
      6 C14          5.7660    19.5410    37.1480 c5         1 U69      -0.078400
      7 C16          6.5010    19.2340    39.4220 c5         1 U69      -0.018700
      8 O23         11.1070    14.5660    41.1750 o          1 U69      -0.923833
      9 O7          10.5410    15.0710    38.7250 o          1 U69      -0.923833
     10 O8          11.2980    16.9740    40.2760 o          1 U69      -0.923833
     11 O9           9.0100    15.8430    40.6440 os         1 U69      -0.585400
     12 P2          10.6430    15.6000    40.1560 p5         1 U69       1.267900
     13 H101         7.4080    17.0420    40.9180 h1         1 U69      -0.007300
     14 H10          8.9320    17.8990    40.8400 h1         1 U69      -0.007300
     15 H13          7.8700    19.3530    36.7060 hc         1 U69       0.031450
     16 H131         6.9940    17.8600    36.4160 hc         1 U69       0.031450
     17 H15          6.5710    21.1250    38.3720 hc         1 U69       0.015450
     18 H151         4.9380    20.6740    38.8440 hc         1 U69       0.015450
     19 H11          8.6770    16.7680    38.2160 ha         1 U69       0.225000
     20 H14          5.6410    20.2120    36.2980 hc         1 U69       0.015450
     21 H141         4.8990    18.8750    37.1690 hc         1 U69       0.015450
     22 H161         5.7140    18.6520    39.9160 hc         1 U69       0.031450
     23 H16          7.0960    19.6820    40.2220 hc         1 U69       0.031450
@<TRIPOS>BOND
     1     1     4 1   
     2     1    11 1   
     3     1    13 1   
     4     1    14 1   
     5     2     5 1   
     6     2     6 1   
     7     2    15 1   
     8     2    16 1   
     9     3     6 1   
    10     3     7 1   
    11     3    17 1   
    12     3    18 1   
    13     4     5 2   
    14     4    19 1   
    15     5     7 1   
    16     6    20 1   
    17     6    21 1   
    18     7    22 1   
    19     7    23 1   
    20     8    12 1   
    21     9    12 1   
    22    10    12 1   
    23    11    12 1   
@<TRIPOS>SUBSTRUCTURE
     1 U69         1 TEMP              0 ****  ****    0 ROOT
