@<TRIPOS>MOLECULE
U69
   23    23     1     0     0
SMALL
No Charge or Current Charge


@<TRIPOS>ATOM
      1 C10          8.9400    17.1930    39.7640 c3         1 U69       0.277800
      2 C13          6.3440    18.4400    37.0330 c5         1 U69      -0.018700
      3 C15          6.0340    20.4400    38.3350 c5         1 U69      -0.078400
      4 C11          8.0900    17.3400    38.5170 c2         1 U69      -0.132200
      5 C12          7.2000    18.3200    38.2790 c2         1 U69      -0.258400
      6 C14          5.2360    19.4470    37.4420 c5         1 U69      -0.078400
      7 C16          6.8680    19.4700    39.2150 c5         1 U69      -0.018700
      8 O23         11.3270    14.2810    40.5160 o          1 U69      -0.923833
      9 O7          11.7220    16.6210    41.0180 o          1 U69      -0.923833
     10 O8           9.9060    15.4180    42.1200 o          1 U69      -0.923833
     11 O9           9.6820    15.9770    39.6590 os         1 U69      -0.585400
     12 P2          10.6760    15.5750    40.8570 p5         1 U69       1.267900
     13 H101         8.2900    17.1760    40.6480 h1         1 U69      -0.007300
     14 H10          9.6150    18.0550    39.8470 h1         1 U69      -0.007300
     15 H13          6.9390    18.8340    36.2010 hc         1 U69       0.031450
     16 H131         5.9350    17.4740    36.7130 hc         1 U69       0.031450
     17 H15          6.6830    21.0830    37.7280 hc         1 U69       0.015450
     18 H151         5.3840    21.0930    38.9280 hc         1 U69       0.015450
     19 H11          8.2510    16.5520    37.7810 ha         1 U69       0.225000
     20 H14          4.7700    19.9340    36.5780 hc         1 U69       0.015450
     21 H141         4.4400    18.9530    38.0120 hc         1 U69       0.015450
     22 H161         6.2760    19.1080    40.0640 hc         1 U69       0.031450
     23 H16          7.7660    19.9480    39.6230 hc         1 U69       0.031450
@<TRIPOS>BOND
     1     1     4 1   
     2     1    11 1   
     3     1    13 1   
     4     1    14 1   
     5     2     5 1   
     6     2     6 1   
     7     2    15 1   
     8     2    16 1   
     9     3     6 1   
    10     3     7 1   
    11     3    17 1   
    12     3    18 1   
    13     4     5 2   
    14     4    19 1   
    15     5     7 1   
    16     6    20 1   
    17     6    21 1   
    18     7    22 1   
    19     7    23 1   
    20     8    12 1   
    21     9    12 1   
    22    10    12 1   
    23    11    12 1   
@<TRIPOS>SUBSTRUCTURE
     1 U69         1 TEMP              0 ****  ****    0 ROOT
