@<TRIPOS>MOLECULE
U6A
   18    17     1     0     0
SMALL
No Charge or Current Charge


@<TRIPOS>ATOM
      1 C1         157.4260   228.1760   190.0820 c          1 U6A       0.914100
      2 C3         155.4820   230.3400   189.4960 c3         1 U6A       0.186500
      3 C7         156.0200   232.5940   190.7050 c3         1 U6A      -0.102100
      4 C6         155.2960   231.2300   190.7880 c3         1 U6A       0.104300
      5 C4         155.2370   228.7950   189.8630 c          1 U6A       0.660100
      6 O9         154.1070   228.3140   189.9390 o          1 U6A      -0.640000
      7 O10        156.2520   227.9860   189.4350 os         1 U6A      -0.567200
      8 O8         153.9100   231.4650   191.0970 oh         1 U6A      -0.620000
      9 N2         154.7150   230.8780   188.2970 n2         1 U6A      -1.067200
     10 O1         158.4040   227.6410   189.5900 o          1 U6A      -0.707500
     11 H3         156.5440   230.4270   189.2260 h1         1 U6A      -0.057300
     12 H4         157.0900   232.4490   190.5150 hc         1 U6A       0.003367
     13 H5         155.6090   233.2180   189.9020 hc         1 U6A       0.003367
     14 H6         155.9190   233.1430   191.6500 hc         1 U6A       0.003367
     15 H7         155.7490   230.6920   191.6290 h1         1 U6A      -0.016300
     16 H9         153.8910   232.1160   191.8280 ho         1 U6A       0.359000
     17 H10        153.8630   231.4090   188.5210 hn         1 U6A       0.251000
     18 OXT        157.4550   228.7510   191.1590 o          1 U6A      -0.707500
@<TRIPOS>BOND
     1     1     7 1   
     2     1    10 1   
     3     1    18 1   
     4     2     4 1   
     5     2     5 1   
     6     2     9 1   
     7     2    11 1   
     8     3     4 1   
     9     3    12 1   
    10     3    13 1   
    11     3    14 1   
    12     4     8 1   
    13     4    15 1   
    14     5     6 2   
    15     5     7 1   
    16     8    16 1   
    17     9    17 1   
@<TRIPOS>SUBSTRUCTURE
     1 U6A         1 TEMP              0 ****  ****    0 ROOT
