@<TRIPOS>MOLECULE
U6A
   18    17     1     0     0
SMALL
abcg2


@<TRIPOS>ATOM
      1 C1         157.0850   228.0110   188.9040 c          1 U6A       0.914100
      2 C3         155.9660   230.3680   190.2150 c3         1 U6A       0.186500
      3 C7         155.4000   232.7840   190.6190 c3         1 U6A      -0.102100
      4 C6         155.0350   231.3520   190.9750 c3         1 U6A       0.104300
      5 C4         155.6260   228.9460   190.6630 c          1 U6A       0.660100
      6 O9         155.1380   228.6590   191.7400 o          1 U6A      -0.640000
      7 O10        155.8790   227.9570   189.8140 os         1 U6A      -0.567200
      8 O8         153.6870   231.0800   190.6230 oh         1 U6A      -0.620000
      9 N2         155.9620   230.4470   188.8050 n2         1 U6A      -1.067200
     10 O1         156.8230   227.5550   187.7980 o          1 U6A      -0.707500
     11 H3         156.9520   230.5440   190.7260 h1         1 U6A      -0.057300
     12 H4         156.4360   233.0020   190.8910 hc         1 U6A       0.003367
     13 H5         155.2840   232.9490   189.5470 hc         1 U6A       0.003367
     14 H6         154.7700   233.5040   191.1490 hc         1 U6A       0.003367
     15 H7         155.1790   231.2230   192.0580 h1         1 U6A      -0.016300
     16 H9         153.1260   231.6370   191.1690 ho         1 U6A       0.359000
     17 H10        156.4790   231.2940   188.5750 hn         1 U6A       0.251000
     18 OXT        158.1420   228.3130   189.4510 o          1 U6A      -0.707500
@<TRIPOS>BOND
     1     1     7 1   
     2     1    10 1   
     3     1    18 1   
     4     2     4 1   
     5     2     5 1   
     6     2     9 1   
     7     2    11 1   
     8     3     4 1   
     9     3    12 1   
    10     3    13 1   
    11     3    14 1   
    12     4     8 1   
    13     4    15 1   
    14     5     6 2   
    15     5     7 1   
    16     8    16 1   
    17     9    17 1   
@<TRIPOS>SUBSTRUCTURE
     1 U6A         1 TEMP              0 ****  ****    0 ROOT
