@<TRIPOS>MOLECULE
U6B
   52    54     1     0     0
SMALL
No Charge or Current Charge


@<TRIPOS>ATOM
      1 C9           4.0130    -2.9690     0.5780 c2         1 U6B       0.396200
      2 C23         -5.4080     0.9040     0.9890 ca         1 U6B      -0.071000
      3 C25         -5.5560     0.6560    -1.4240 ca         1 U6B      -0.071000
      4 C22         -4.1640     0.2480     0.9780 ca         1 U6B      -0.107000
      5 C26         -4.3110     0.0020    -1.4310 ca         1 U6B      -0.107000
      6 C2          -1.3540    -0.7460    -1.3150 ca         1 U6B      -0.094500
      7 C4          -1.8750    -1.7660     0.8240 ca         1 U6B      -0.094500
      8 C1          -0.1100    -1.3990    -1.3240 ca         1 U6B      -0.102000
      9 C5          -0.6310    -2.4200     0.8160 ca         1 U6B      -0.102000
     10 C24         -6.1090     1.1100    -0.2130 ca         1 U6B      -0.019000
     11 C21         -3.5890    -0.2160    -0.2310 cp         1 U6B      -0.007000
     12 C3          -2.2630    -0.9140    -0.2410 cp         1 U6B      -0.043000
     13 C6           0.2600    -2.2400    -0.2580 ca         1 U6B      -0.067300
     14 C12          2.3000     0.2720     0.8550 c          1 U6B       0.614100
     15 C15          2.8950     1.6970    -1.3200 c6         1 U6B      -0.115400
     16 C19          3.6550     2.4700     0.9560 c6         1 U6B      -0.115400
     17 C16          4.3670     1.2810    -1.6140 c6         1 U6B       0.157600
     18 C18          5.0520     1.9040     0.6150 c6         1 U6B       0.157600
     19 C14          2.5110     1.7200     0.2050 c6         1 U6B       0.097200
     20 C7           1.6120    -2.9440    -0.2600 c3         1 U6B      -0.040100
     21 C8           2.6770    -2.2320     0.6110 c3         1 U6B       0.059400
     22 N28         -8.4190     2.3150    -0.1970 n1         1 U6B      -0.451000
     23 N10          4.9290    -2.7390    -0.2990 n2         1 U6B      -0.737100
     24 N20          1.2530     2.5260     0.3410 n8         1 U6B      -1.014200
     25 N11          2.8400    -0.8200     0.2060 ns         1 U6B      -0.474900
     26 O13          1.5870     0.1240     1.8420 o          1 U6B      -0.617100
     27 O17          5.2790     2.0430    -0.8000 os         1 U6B      -0.455000
     28 H9           4.1770    -3.7240     1.3410 h4         1 U6B      -0.036200
     29 H8           2.3250    -2.2560     1.6510 h1         1 U6B       0.093700
     30 H10          5.7320    -3.3590    -0.1180 hn         1 U6B       0.377400
     31 H23         -5.8230     1.2530     1.9330 ha         1 U6B       0.126500
     32 H22         -3.6350     0.1130     1.9180 ha         1 U6B       0.122000
     33 H25         -6.0890     0.8060    -2.3610 ha         1 U6B       0.126500
     34 H26         -3.9110    -0.3520    -2.3780 ha         1 U6B       0.122000
     35 H2          -1.6060    -0.0890    -2.1430 ha         1 U6B       0.115500
     36 H1           0.5700    -1.2450    -2.1590 ha         1 U6B       0.114500
     37 H4          -2.5490    -1.9320     1.6600 ha         1 U6B       0.115500
     38 H5          -0.3600    -3.0670     1.6470 ha         1 U6B       0.114500
     39 H71C         1.4930    -3.9740     0.0980 hc         1 U6B       0.055700
     40 H72C         1.9900    -3.0260    -1.2870 hc         1 U6B       0.055700
     41 H11          3.3890    -0.6380    -0.6220 hn         1 U6B       0.342500
     42 H151         2.7470     2.6990    -1.7460 hc         1 U6B       0.054950
     43 H152         2.2090     1.0400    -1.8720 hc         1 U6B       0.054950
     44 H161         4.5380     0.2120    -1.4360 h1         1 U6B       0.055700
     45 H162         4.5970     1.4720    -2.6720 h1         1 U6B       0.055700
     46 H191         3.4950     2.4140     2.0420 hc         1 U6B       0.054950
     47 H192         3.6430     3.5390     0.7000 hc         1 U6B       0.054950
     48 H181         5.8260     2.4680     1.1560 h1         1 U6B       0.055700
     49 H182         5.1340     0.8460     0.9050 h1         1 U6B       0.055700
     50 H201         0.7210     2.1350     1.1300 hn         1 U6B       0.406000
     51 H202         1.4950     3.4690     0.6620 hn         1 U6B       0.406000
     52 C27         -7.3810     1.7800    -0.2040 cg         1 U6B       0.323000
@<TRIPOS>BOND
     1     1    21 1   
     2     1    23 2   
     3     1    28 1   
     4     2     4 ar  
     5     2    10 ar  
     6     2    31 1   
     7     3     5 ar  
     8     3    10 ar  
     9     3    33 1   
    10     4    11 ar  
    11     4    32 1   
    12     5    11 ar  
    13     5    34 1   
    14     6     8 ar  
    15     6    12 ar  
    16     6    35 1   
    17     7     9 ar  
    18     7    12 ar  
    19     7    37 1   
    20     8    13 ar  
    21     8    36 1   
    22     9    13 ar  
    23     9    38 1   
    24    10    52 1   
    25    11    12 1   
    26    13    20 1   
    27    14    19 1   
    28    14    25 1   
    29    14    26 2   
    30    15    17 1   
    31    15    19 1   
    32    15    42 1   
    33    15    43 1   
    34    16    18 1   
    35    16    19 1   
    36    16    46 1   
    37    16    47 1   
    38    17    27 1   
    39    17    44 1   
    40    17    45 1   
    41    18    27 1   
    42    18    48 1   
    43    18    49 1   
    44    19    24 1   
    45    20    21 1   
    46    20    39 1   
    47    20    40 1   
    48    21    25 1   
    49    21    29 1   
    50    22    52 3   
    51    23    30 1   
    52    24    50 1   
    53    24    51 1   
    54    25    41 1   
@<TRIPOS>SUBSTRUCTURE
     1 U6B         1 TEMP              0 ****  ****    0 ROOT
